<?xml version="1.0" encoding="UTF-8"?>

<!-- generated on 2022-12-06 06:37:43 by Eclipse SUMO netedit Version 1.15.0
<configuration xmlns:xsi="http://www.w3.org/2001/XMLSchema-instance" xsi:noNamespaceSchemaLocation="http://sumo.dlr.de/xsd/netconvertConfiguration.xsd">

    <input>
        <sumo-net-file value="/home/CAMPUS/180205312/SUMO_multi_junction_control/Grid3by3/Grid3by3.net.xml"/>
    </input>

    <output>
        <output-file value="/home/CAMPUS/180205312/SUMO_multi_junction_control/Grid3by3/Grid3by3.net.xml"/>
    </output>

    <processing>
        <geometry.min-radius.fix.railways value="false"/>
        <geometry.max-grade.fix value="false"/>
        <offset.disable-normalization value="true"/>
        <lefthand value="0"/>
    </processing>

    <junctions>
        <no-turnarounds value="true"/>
        <junctions.corner-detail value="5"/>
        <junctions.limit-turn-speed value="5.50"/>
        <rectangular-lane-cut value="0"/>
    </junctions>

    <pedestrian>
        <walkingareas value="0"/>
    </pedestrian>

</configuration>
-->

<net version="1.9" junctionCornerDetail="5" limitTurnSpeed="5.50" xmlns:xsi="http://www.w3.org/2001/XMLSchema-instance" xsi:noNamespaceSchemaLocation="http://sumo.dlr.de/xsd/net_file.xsd">

    <location netOffset="400.00,400.00" convBoundary="0.00,0.00,800.00,800.00" origBoundary="-400.00,-400.00,400.00,400.00" projParameter="!"/>

    <type id="junction_in" priority="78" numLanes="3" speed="19.44"/>
    <type id="junction_out" priority="46" numLanes="3" speed="11.11"/>

    <edge id=":00_0" function="internal">
        <lane id=":00_0_0" index="0" speed="6.51" length="9.03" shape="192.00,613.60 191.65,611.15 190.60,609.40 188.85,608.35 186.40,608.00"/>
    </edge>
    <edge id=":00_1" function="internal">
        <lane id=":00_1_0" index="0" speed="11.11" length="27.20" shape="195.20,613.60 195.20,586.40"/>
    </edge>
    <edge id=":00_2" function="internal">
        <lane id=":00_2_0" index="0" speed="10.36" length="24.51" shape="198.40,613.60 199.35,606.95 202.20,602.20 206.95,599.35 213.60,598.40"/>
    </edge>
    <edge id=":00_3" function="internal">
        <lane id=":00_3_0" index="0" speed="6.51" length="9.03" shape="213.60,608.00 211.15,608.35 209.40,609.40 208.35,611.15 208.00,613.60"/>
    </edge>
    <edge id=":00_4" function="internal">
        <lane id=":00_4_0" index="0" speed="11.11" length="27.20" shape="213.60,604.80 186.40,604.80"/>
    </edge>
    <edge id=":00_5" function="internal">
        <lane id=":00_5_0" index="0" speed="10.36" length="24.51" shape="213.60,601.60 206.95,600.65 202.20,597.80 199.35,593.05 198.40,586.40"/>
    </edge>
    <edge id=":00_6" function="internal">
        <lane id=":00_6_0" index="0" speed="6.51" length="9.03" shape="208.00,586.40 208.35,588.85 209.40,590.60 211.15,591.65 213.60,592.00"/>
    </edge>
    <edge id=":00_7" function="internal">
        <lane id=":00_7_0" index="0" speed="11.11" length="27.20" shape="204.80,586.40 204.80,613.60"/>
    </edge>
    <edge id=":00_8" function="internal">
        <lane id=":00_8_0" index="0" speed="10.36" length="24.51" shape="201.60,586.40 200.65,593.05 197.80,597.80 193.05,600.65 186.40,601.60"/>
    </edge>
    <edge id=":00_9" function="internal">
        <lane id=":00_9_0" index="0" speed="6.51" length="9.03" shape="186.40,592.00 188.85,591.65 190.60,590.60 191.65,588.85 192.00,586.40"/>
    </edge>
    <edge id=":00_10" function="internal">
        <lane id=":00_10_0" index="0" speed="11.11" length="27.20" shape="186.40,595.20 213.60,595.20"/>
    </edge>
    <edge id=":00_11" function="internal">
        <lane id=":00_11_0" index="0" speed="10.36" length="24.51" shape="186.40,598.40 193.05,599.35 197.80,602.20 200.65,606.95 201.60,613.60"/>
    </edge>
    <edge id=":01_0" function="internal">
        <lane id=":01_0_0" index="0" speed="6.51" length="9.03" shape="392.00,613.60 391.65,611.15 390.60,609.40 388.85,608.35 386.40,608.00"/>
    </edge>
    <edge id=":01_1" function="internal">
        <lane id=":01_1_0" index="0" speed="11.11" length="27.20" shape="395.20,613.60 395.20,586.40"/>
    </edge>
    <edge id=":01_2" function="internal">
        <lane id=":01_2_0" index="0" speed="10.36" length="24.51" shape="398.40,613.60 399.35,606.95 402.20,602.20 406.95,599.35 413.60,598.40"/>
    </edge>
    <edge id=":01_3" function="internal">
        <lane id=":01_3_0" index="0" speed="6.51" length="9.03" shape="413.60,608.00 411.15,608.35 409.40,609.40 408.35,611.15 408.00,613.60"/>
    </edge>
    <edge id=":01_4" function="internal">
        <lane id=":01_4_0" index="0" speed="11.11" length="27.20" shape="413.60,604.80 386.40,604.80"/>
    </edge>
    <edge id=":01_5" function="internal">
        <lane id=":01_5_0" index="0" speed="10.36" length="24.51" shape="413.60,601.60 406.95,600.65 402.20,597.80 399.35,593.05 398.40,586.40"/>
    </edge>
    <edge id=":01_6" function="internal">
        <lane id=":01_6_0" index="0" speed="6.51" length="9.03" shape="408.00,586.40 408.35,588.85 409.40,590.60 411.15,591.65 413.60,592.00"/>
    </edge>
    <edge id=":01_7" function="internal">
        <lane id=":01_7_0" index="0" speed="11.11" length="27.20" shape="404.80,586.40 404.80,613.60"/>
    </edge>
    <edge id=":01_8" function="internal">
        <lane id=":01_8_0" index="0" speed="10.36" length="24.51" shape="401.60,586.40 400.65,593.05 397.80,597.80 393.05,600.65 386.40,601.60"/>
    </edge>
    <edge id=":01_9" function="internal">
        <lane id=":01_9_0" index="0" speed="6.51" length="9.03" shape="386.40,592.00 388.85,591.65 390.60,590.60 391.65,588.85 392.00,586.40"/>
    </edge>
    <edge id=":01_10" function="internal">
        <lane id=":01_10_0" index="0" speed="11.11" length="27.20" shape="386.40,595.20 413.60,595.20"/>
    </edge>
    <edge id=":01_11" function="internal">
        <lane id=":01_11_0" index="0" speed="10.36" length="24.51" shape="386.40,598.40 393.05,599.35 397.80,602.20 400.65,606.95 401.60,613.60"/>
    </edge>
    <edge id=":02_0" function="internal">
        <lane id=":02_0_0" index="0" speed="6.51" length="9.03" shape="592.00,613.60 591.65,611.15 590.60,609.40 588.85,608.35 586.40,608.00"/>
    </edge>
    <edge id=":02_1" function="internal">
        <lane id=":02_1_0" index="0" speed="11.11" length="27.20" shape="595.20,613.60 595.20,586.40"/>
    </edge>
    <edge id=":02_2" function="internal">
        <lane id=":02_2_0" index="0" speed="10.36" length="24.51" shape="598.40,613.60 599.35,606.95 602.20,602.20 606.95,599.35 613.60,598.40"/>
    </edge>
    <edge id=":02_3" function="internal">
        <lane id=":02_3_0" index="0" speed="6.51" length="9.03" shape="613.60,608.00 611.15,608.35 609.40,609.40 608.35,611.15 608.00,613.60"/>
    </edge>
    <edge id=":02_4" function="internal">
        <lane id=":02_4_0" index="0" speed="11.11" length="27.20" shape="613.60,604.80 586.40,604.80"/>
    </edge>
    <edge id=":02_5" function="internal">
        <lane id=":02_5_0" index="0" speed="10.36" length="24.51" shape="613.60,601.60 606.95,600.65 602.20,597.80 599.35,593.05 598.40,586.40"/>
    </edge>
    <edge id=":02_6" function="internal">
        <lane id=":02_6_0" index="0" speed="6.51" length="9.03" shape="608.00,586.40 608.35,588.85 609.40,590.60 611.15,591.65 613.60,592.00"/>
    </edge>
    <edge id=":02_7" function="internal">
        <lane id=":02_7_0" index="0" speed="11.11" length="27.20" shape="604.80,586.40 604.80,613.60"/>
    </edge>
    <edge id=":02_8" function="internal">
        <lane id=":02_8_0" index="0" speed="10.36" length="24.51" shape="601.60,586.40 600.65,593.05 597.80,597.80 593.05,600.65 586.40,601.60"/>
    </edge>
    <edge id=":02_9" function="internal">
        <lane id=":02_9_0" index="0" speed="6.51" length="9.03" shape="586.40,592.00 588.85,591.65 590.60,590.60 591.65,588.85 592.00,586.40"/>
    </edge>
    <edge id=":02_10" function="internal">
        <lane id=":02_10_0" index="0" speed="11.11" length="27.20" shape="586.40,595.20 613.60,595.20"/>
    </edge>
    <edge id=":02_11" function="internal">
        <lane id=":02_11_0" index="0" speed="10.36" length="24.51" shape="586.40,598.40 593.05,599.35 597.80,602.20 600.65,606.95 601.60,613.60"/>
    </edge>
    <edge id=":03_0" function="internal">
        <lane id=":03_0_0" index="0" speed="6.51" length="9.03" shape="192.00,413.60 191.65,411.15 190.60,409.40 188.85,408.35 186.40,408.00"/>
    </edge>
    <edge id=":03_1" function="internal">
        <lane id=":03_1_0" index="0" speed="11.11" length="27.20" shape="195.20,413.60 195.20,386.40"/>
    </edge>
    <edge id=":03_2" function="internal">
        <lane id=":03_2_0" index="0" speed="10.36" length="24.51" shape="198.40,413.60 199.35,406.95 202.20,402.20 206.95,399.35 213.60,398.40"/>
    </edge>
    <edge id=":03_3" function="internal">
        <lane id=":03_3_0" index="0" speed="6.51" length="9.03" shape="213.60,408.00 211.15,408.35 209.40,409.40 208.35,411.15 208.00,413.60"/>
    </edge>
    <edge id=":03_4" function="internal">
        <lane id=":03_4_0" index="0" speed="11.11" length="27.20" shape="213.60,404.80 186.40,404.80"/>
    </edge>
    <edge id=":03_5" function="internal">
        <lane id=":03_5_0" index="0" speed="10.36" length="24.51" shape="213.60,401.60 206.95,400.65 202.20,397.80 199.35,393.05 198.40,386.40"/>
    </edge>
    <edge id=":03_6" function="internal">
        <lane id=":03_6_0" index="0" speed="6.51" length="9.03" shape="208.00,386.40 208.35,388.85 209.40,390.60 211.15,391.65 213.60,392.00"/>
    </edge>
    <edge id=":03_7" function="internal">
        <lane id=":03_7_0" index="0" speed="11.11" length="27.20" shape="204.80,386.40 204.80,413.60"/>
    </edge>
    <edge id=":03_8" function="internal">
        <lane id=":03_8_0" index="0" speed="10.36" length="24.51" shape="201.60,386.40 200.65,393.05 197.80,397.80 193.05,400.65 186.40,401.60"/>
    </edge>
    <edge id=":03_9" function="internal">
        <lane id=":03_9_0" index="0" speed="6.51" length="9.03" shape="186.40,392.00 188.85,391.65 190.60,390.60 191.65,388.85 192.00,386.40"/>
    </edge>
    <edge id=":03_10" function="internal">
        <lane id=":03_10_0" index="0" speed="11.11" length="27.20" shape="186.40,395.20 213.60,395.20"/>
    </edge>
    <edge id=":03_11" function="internal">
        <lane id=":03_11_0" index="0" speed="10.36" length="24.51" shape="186.40,398.40 193.05,399.35 197.80,402.20 200.65,406.95 201.60,413.60"/>
    </edge>
    <edge id=":04_0" function="internal">
        <lane id=":04_0_0" index="0" speed="6.51" length="9.03" shape="392.00,413.60 391.65,411.15 390.60,409.40 388.85,408.35 386.40,408.00"/>
    </edge>
    <edge id=":04_1" function="internal">
        <lane id=":04_1_0" index="0" speed="11.11" length="27.20" shape="395.20,413.60 395.20,386.40"/>
    </edge>
    <edge id=":04_2" function="internal">
        <lane id=":04_2_0" index="0" speed="10.36" length="24.51" shape="398.40,413.60 399.35,406.95 402.20,402.20 406.95,399.35 413.60,398.40"/>
    </edge>
    <edge id=":04_3" function="internal">
        <lane id=":04_3_0" index="0" speed="6.51" length="9.03" shape="413.60,408.00 411.15,408.35 409.40,409.40 408.35,411.15 408.00,413.60"/>
    </edge>
    <edge id=":04_4" function="internal">
        <lane id=":04_4_0" index="0" speed="11.11" length="27.20" shape="413.60,404.80 386.40,404.80"/>
    </edge>
    <edge id=":04_5" function="internal">
        <lane id=":04_5_0" index="0" speed="10.36" length="24.51" shape="413.60,401.60 406.95,400.65 402.20,397.80 399.35,393.05 398.40,386.40"/>
    </edge>
    <edge id=":04_6" function="internal">
        <lane id=":04_6_0" index="0" speed="6.51" length="9.03" shape="408.00,386.40 408.35,388.85 409.40,390.60 411.15,391.65 413.60,392.00"/>
    </edge>
    <edge id=":04_7" function="internal">
        <lane id=":04_7_0" index="0" speed="11.11" length="27.20" shape="404.80,386.40 404.80,413.60"/>
    </edge>
    <edge id=":04_8" function="internal">
        <lane id=":04_8_0" index="0" speed="10.36" length="24.51" shape="401.60,386.40 400.65,393.05 397.80,397.80 393.05,400.65 386.40,401.60"/>
    </edge>
    <edge id=":04_9" function="internal">
        <lane id=":04_9_0" index="0" speed="6.51" length="9.03" shape="386.40,392.00 388.85,391.65 390.60,390.60 391.65,388.85 392.00,386.40"/>
    </edge>
    <edge id=":04_10" function="internal">
        <lane id=":04_10_0" index="0" speed="11.11" length="27.20" shape="386.40,395.20 413.60,395.20"/>
    </edge>
    <edge id=":04_11" function="internal">
        <lane id=":04_11_0" index="0" speed="10.36" length="24.51" shape="386.40,398.40 393.05,399.35 397.80,402.20 400.65,406.95 401.60,413.60"/>
    </edge>
    <edge id=":05_0" function="internal">
        <lane id=":05_0_0" index="0" speed="6.51" length="9.03" shape="592.00,413.60 591.65,411.15 590.60,409.40 588.85,408.35 586.40,408.00"/>
    </edge>
    <edge id=":05_1" function="internal">
        <lane id=":05_1_0" index="0" speed="11.11" length="27.20" shape="595.20,413.60 595.20,386.40"/>
    </edge>
    <edge id=":05_2" function="internal">
        <lane id=":05_2_0" index="0" speed="10.36" length="24.51" shape="598.40,413.60 599.35,406.95 602.20,402.20 606.95,399.35 613.60,398.40"/>
    </edge>
    <edge id=":05_3" function="internal">
        <lane id=":05_3_0" index="0" speed="6.51" length="9.03" shape="613.60,408.00 611.15,408.35 609.40,409.40 608.35,411.15 608.00,413.60"/>
    </edge>
    <edge id=":05_4" function="internal">
        <lane id=":05_4_0" index="0" speed="11.11" length="27.20" shape="613.60,404.80 586.40,404.80"/>
    </edge>
    <edge id=":05_5" function="internal">
        <lane id=":05_5_0" index="0" speed="10.36" length="24.51" shape="613.60,401.60 606.95,400.65 602.20,397.80 599.35,393.05 598.40,386.40"/>
    </edge>
    <edge id=":05_6" function="internal">
        <lane id=":05_6_0" index="0" speed="6.51" length="9.03" shape="608.00,386.40 608.35,388.85 609.40,390.60 611.15,391.65 613.60,392.00"/>
    </edge>
    <edge id=":05_7" function="internal">
        <lane id=":05_7_0" index="0" speed="11.11" length="27.20" shape="604.80,386.40 604.80,413.60"/>
    </edge>
    <edge id=":05_8" function="internal">
        <lane id=":05_8_0" index="0" speed="10.36" length="24.51" shape="601.60,386.40 600.65,393.05 597.80,397.80 593.05,400.65 586.40,401.60"/>
    </edge>
    <edge id=":05_9" function="internal">
        <lane id=":05_9_0" index="0" speed="6.51" length="9.03" shape="586.40,392.00 588.85,391.65 590.60,390.60 591.65,388.85 592.00,386.40"/>
    </edge>
    <edge id=":05_10" function="internal">
        <lane id=":05_10_0" index="0" speed="11.11" length="27.20" shape="586.40,395.20 613.60,395.20"/>
    </edge>
    <edge id=":05_11" function="internal">
        <lane id=":05_11_0" index="0" speed="10.36" length="24.51" shape="586.40,398.40 593.05,399.35 597.80,402.20 600.65,406.95 601.60,413.60"/>
    </edge>
    <edge id=":06_0" function="internal">
        <lane id=":06_0_0" index="0" speed="6.51" length="9.03" shape="192.00,213.60 191.65,211.15 190.60,209.40 188.85,208.35 186.40,208.00"/>
    </edge>
    <edge id=":06_1" function="internal">
        <lane id=":06_1_0" index="0" speed="11.11" length="27.20" shape="195.20,213.60 195.20,186.40"/>
    </edge>
    <edge id=":06_2" function="internal">
        <lane id=":06_2_0" index="0" speed="10.36" length="24.51" shape="198.40,213.60 199.35,206.95 202.20,202.20 206.95,199.35 213.60,198.40"/>
    </edge>
    <edge id=":06_3" function="internal">
        <lane id=":06_3_0" index="0" speed="6.51" length="9.03" shape="213.60,208.00 211.15,208.35 209.40,209.40 208.35,211.15 208.00,213.60"/>
    </edge>
    <edge id=":06_4" function="internal">
        <lane id=":06_4_0" index="0" speed="11.11" length="27.20" shape="213.60,204.80 186.40,204.80"/>
    </edge>
    <edge id=":06_5" function="internal">
        <lane id=":06_5_0" index="0" speed="10.36" length="24.51" shape="213.60,201.60 206.95,200.65 202.20,197.80 199.35,193.05 198.40,186.40"/>
    </edge>
    <edge id=":06_6" function="internal">
        <lane id=":06_6_0" index="0" speed="6.51" length="9.03" shape="208.00,186.40 208.35,188.85 209.40,190.60 211.15,191.65 213.60,192.00"/>
    </edge>
    <edge id=":06_7" function="internal">
        <lane id=":06_7_0" index="0" speed="11.11" length="27.20" shape="204.80,186.40 204.80,213.60"/>
    </edge>
    <edge id=":06_8" function="internal">
        <lane id=":06_8_0" index="0" speed="10.36" length="24.51" shape="201.60,186.40 200.65,193.05 197.80,197.80 193.05,200.65 186.40,201.60"/>
    </edge>
    <edge id=":06_9" function="internal">
        <lane id=":06_9_0" index="0" speed="6.51" length="9.03" shape="186.40,192.00 188.85,191.65 190.60,190.60 191.65,188.85 192.00,186.40"/>
    </edge>
    <edge id=":06_10" function="internal">
        <lane id=":06_10_0" index="0" speed="11.11" length="27.20" shape="186.40,195.20 213.60,195.20"/>
    </edge>
    <edge id=":06_11" function="internal">
        <lane id=":06_11_0" index="0" speed="10.36" length="24.51" shape="186.40,198.40 193.05,199.35 197.80,202.20 200.65,206.95 201.60,213.60"/>
    </edge>
    <edge id=":07_0" function="internal">
        <lane id=":07_0_0" index="0" speed="6.51" length="9.03" shape="392.00,213.60 391.65,211.15 390.60,209.40 388.85,208.35 386.40,208.00"/>
    </edge>
    <edge id=":07_1" function="internal">
        <lane id=":07_1_0" index="0" speed="11.11" length="27.20" shape="395.20,213.60 395.20,186.40"/>
    </edge>
    <edge id=":07_2" function="internal">
        <lane id=":07_2_0" index="0" speed="10.36" length="24.51" shape="398.40,213.60 399.35,206.95 402.20,202.20 406.95,199.35 413.60,198.40"/>
    </edge>
    <edge id=":07_3" function="internal">
        <lane id=":07_3_0" index="0" speed="6.51" length="9.03" shape="413.60,208.00 411.15,208.35 409.40,209.40 408.35,211.15 408.00,213.60"/>
    </edge>
    <edge id=":07_4" function="internal">
        <lane id=":07_4_0" index="0" speed="11.11" length="27.20" shape="413.60,204.80 386.40,204.80"/>
    </edge>
    <edge id=":07_5" function="internal">
        <lane id=":07_5_0" index="0" speed="10.36" length="24.51" shape="413.60,201.60 406.95,200.65 402.20,197.80 399.35,193.05 398.40,186.40"/>
    </edge>
    <edge id=":07_6" function="internal">
        <lane id=":07_6_0" index="0" speed="6.51" length="9.03" shape="408.00,186.40 408.35,188.85 409.40,190.60 411.15,191.65 413.60,192.00"/>
    </edge>
    <edge id=":07_7" function="internal">
        <lane id=":07_7_0" index="0" speed="11.11" length="27.20" shape="404.80,186.40 404.80,213.60"/>
    </edge>
    <edge id=":07_8" function="internal">
        <lane id=":07_8_0" index="0" speed="10.36" length="24.51" shape="401.60,186.40 400.65,193.05 397.80,197.80 393.05,200.65 386.40,201.60"/>
    </edge>
    <edge id=":07_9" function="internal">
        <lane id=":07_9_0" index="0" speed="6.51" length="9.03" shape="386.40,192.00 388.85,191.65 390.60,190.60 391.65,188.85 392.00,186.40"/>
    </edge>
    <edge id=":07_10" function="internal">
        <lane id=":07_10_0" index="0" speed="11.11" length="27.20" shape="386.40,195.20 413.60,195.20"/>
    </edge>
    <edge id=":07_11" function="internal">
        <lane id=":07_11_0" index="0" speed="10.36" length="24.51" shape="386.40,198.40 393.05,199.35 397.80,202.20 400.65,206.95 401.60,213.60"/>
    </edge>
    <edge id=":08_0" function="internal">
        <lane id=":08_0_0" index="0" speed="6.51" length="9.03" shape="592.00,213.60 591.65,211.15 590.60,209.40 588.85,208.35 586.40,208.00"/>
    </edge>
    <edge id=":08_1" function="internal">
        <lane id=":08_1_0" index="0" speed="11.11" length="27.20" shape="595.20,213.60 595.20,186.40"/>
    </edge>
    <edge id=":08_2" function="internal">
        <lane id=":08_2_0" index="0" speed="10.36" length="24.51" shape="598.40,213.60 599.35,206.95 602.20,202.20 606.95,199.35 613.60,198.40"/>
    </edge>
    <edge id=":08_3" function="internal">
        <lane id=":08_3_0" index="0" speed="6.51" length="9.03" shape="613.60,208.00 611.15,208.35 609.40,209.40 608.35,211.15 608.00,213.60"/>
    </edge>
    <edge id=":08_4" function="internal">
        <lane id=":08_4_0" index="0" speed="11.11" length="27.20" shape="613.60,204.80 586.40,204.80"/>
    </edge>
    <edge id=":08_5" function="internal">
        <lane id=":08_5_0" index="0" speed="10.36" length="24.51" shape="613.60,201.60 606.95,200.65 602.20,197.80 599.35,193.05 598.40,186.40"/>
    </edge>
    <edge id=":08_6" function="internal">
        <lane id=":08_6_0" index="0" speed="6.51" length="9.03" shape="608.00,186.40 608.35,188.85 609.40,190.60 611.15,191.65 613.60,192.00"/>
    </edge>
    <edge id=":08_7" function="internal">
        <lane id=":08_7_0" index="0" speed="11.11" length="27.20" shape="604.80,186.40 604.80,213.60"/>
    </edge>
    <edge id=":08_8" function="internal">
        <lane id=":08_8_0" index="0" speed="10.36" length="24.51" shape="601.60,186.40 600.65,193.05 597.80,197.80 593.05,200.65 586.40,201.60"/>
    </edge>
    <edge id=":08_9" function="internal">
        <lane id=":08_9_0" index="0" speed="6.51" length="9.03" shape="586.40,192.00 588.85,191.65 590.60,190.60 591.65,188.85 592.00,186.40"/>
    </edge>
    <edge id=":08_10" function="internal">
        <lane id=":08_10_0" index="0" speed="11.11" length="27.20" shape="586.40,195.20 613.60,195.20"/>
    </edge>
    <edge id=":08_11" function="internal">
        <lane id=":08_11_0" index="0" speed="10.36" length="24.51" shape="586.40,198.40 593.05,199.35 597.80,202.20 600.65,206.95 601.60,213.60"/>
    </edge>
    <edge id=":10_0" function="internal">
        <lane id=":10_0_0" index="0" speed="3.65" length="4.67" shape="201.60,800.00 200.80,801.20 200.00,801.60 199.20,801.20 198.40,800.00"/>
    </edge>
    <edge id=":11_0" function="internal">
        <lane id=":11_0_0" index="0" speed="3.65" length="4.67" shape="401.60,800.00 400.80,801.20 400.00,801.60 399.20,801.20 398.40,800.00"/>
    </edge>
    <edge id=":12_0" function="internal">
        <lane id=":12_0_0" index="0" speed="3.65" length="4.67" shape="601.60,800.00 600.80,801.20 600.00,801.60 599.20,801.20 598.40,800.00"/>
    </edge>
    <edge id=":13_0" function="internal">
        <lane id=":13_0_0" index="0" speed="3.65" length="4.67" shape="800.00,598.40 801.20,599.20 801.60,600.00 801.20,600.80 800.00,601.60"/>
    </edge>
    <edge id=":14_0" function="internal">
        <lane id=":14_0_0" index="0" speed="3.65" length="4.67" shape="800.00,398.40 801.20,399.20 801.60,400.00 801.20,400.80 800.00,401.60"/>
    </edge>
    <edge id=":15_0" function="internal">
        <lane id=":15_0_0" index="0" speed="3.65" length="4.67" shape="800.00,198.40 801.20,199.20 801.60,200.00 801.20,200.80 800.00,201.60"/>
    </edge>
    <edge id=":16_0" function="internal">
        <lane id=":16_0_0" index="0" speed="3.65" length="4.67" shape="598.40,0.00 599.20,-1.20 600.00,-1.60 600.80,-1.20 601.60,0.00"/>
    </edge>
    <edge id=":17_0" function="internal">
        <lane id=":17_0_0" index="0" speed="3.65" length="4.67" shape="398.40,0.00 399.20,-1.20 400.00,-1.60 400.80,-1.20 401.60,0.00"/>
    </edge>
    <edge id=":18_0" function="internal">
        <lane id=":18_0_0" index="0" speed="3.65" length="4.67" shape="198.40,0.00 199.20,-1.20 200.00,-1.60 200.80,-1.20 201.60,0.00"/>
    </edge>
    <edge id=":19_0" function="internal">
        <lane id=":19_0_0" index="0" speed="3.65" length="4.67" shape="0.00,201.60 -1.20,200.80 -1.60,200.00 -1.20,199.20 0.00,198.40"/>
    </edge>
    <edge id=":1a_0" function="internal">
        <lane id=":1a_0_0" index="0" speed="3.65" length="4.67" shape="0.00,401.60 -1.20,400.80 -1.60,400.00 -1.20,399.20 0.00,398.40"/>
    </edge>
    <edge id=":1b_0" function="internal">
        <lane id=":1b_0_0" index="0" speed="3.65" length="4.67" shape="0.00,601.60 -1.20,600.80 -1.60,600.00 -1.20,599.20 0.00,598.40"/>
    </edge>

    <edge id="00to01" from="00" to="01" priority="46" type="junction_out">
        <lane id="00to01_0" index="0" speed="11.11" length="172.80" shape="213.60,592.00 386.40,592.00"/>
        <lane id="00to01_1" index="1" speed="11.11" length="172.80" shape="213.60,595.20 386.40,595.20"/>
        <lane id="00to01_2" index="2" speed="11.11" length="172.80" shape="213.60,598.40 386.40,598.40"/>
    </edge>
    <edge id="00to03" from="00" to="03" priority="46" type="junction_out">
        <lane id="00to03_0" index="0" speed="11.11" length="172.80" shape="192.00,586.40 192.00,413.60"/>
        <lane id="00to03_1" index="1" speed="11.11" length="172.80" shape="195.20,586.40 195.20,413.60"/>
        <lane id="00to03_2" index="2" speed="11.11" length="172.80" shape="198.40,586.40 198.40,413.60"/>
    </edge>
    <edge id="00to10" from="00" to="10" priority="46" type="junction_out">
        <lane id="00to10_0" index="0" speed="11.11" length="186.40" shape="208.00,613.60 208.00,800.00"/>
        <lane id="00to10_1" index="1" speed="11.11" length="186.40" shape="204.80,613.60 204.80,800.00"/>
        <lane id="00to10_2" index="2" speed="11.11" length="186.40" shape="201.60,613.60 201.60,800.00"/>
    </edge>
    <edge id="00to1b" from="00" to="1b" priority="46" type="junction_out">
        <lane id="00to1b_0" index="0" speed="11.11" length="186.40" shape="186.40,608.00 0.00,608.00"/>
        <lane id="00to1b_1" index="1" speed="11.11" length="186.40" shape="186.40,604.80 0.00,604.80"/>
        <lane id="00to1b_2" index="2" speed="11.11" length="186.40" shape="186.40,601.60 0.00,601.60"/>
    </edge>
    <edge id="01to00" from="01" to="00" priority="46" type="junction_out">
        <lane id="01to00_0" index="0" speed="11.11" length="172.80" shape="386.40,608.00 213.60,608.00"/>
        <lane id="01to00_1" index="1" speed="11.11" length="172.80" shape="386.40,604.80 213.60,604.80"/>
        <lane id="01to00_2" index="2" speed="11.11" length="172.80" shape="386.40,601.60 213.60,601.60"/>
    </edge>
    <edge id="01to02" from="01" to="02" priority="46" type="junction_out">
        <lane id="01to02_0" index="0" speed="11.11" length="172.80" shape="413.60,592.00 586.40,592.00"/>
        <lane id="01to02_1" index="1" speed="11.11" length="172.80" shape="413.60,595.20 586.40,595.20"/>
        <lane id="01to02_2" index="2" speed="11.11" length="172.80" shape="413.60,598.40 586.40,598.40"/>
    </edge>
    <edge id="01to04" from="01" to="04" priority="46" type="junction_out">
        <lane id="01to04_0" index="0" speed="11.11" length="172.80" shape="392.00,586.40 392.00,413.60"/>
        <lane id="01to04_1" index="1" speed="11.11" length="172.80" shape="395.20,586.40 395.20,413.60"/>
        <lane id="01to04_2" index="2" speed="11.11" length="172.80" shape="398.40,586.40 398.40,413.60"/>
    </edge>
    <edge id="01to11" from="01" to="11" priority="46" type="junction_out">
        <lane id="01to11_0" index="0" speed="11.11" length="186.40" shape="408.00,613.60 408.00,800.00"/>
        <lane id="01to11_1" index="1" speed="11.11" length="186.40" shape="404.80,613.60 404.80,800.00"/>
        <lane id="01to11_2" index="2" speed="11.11" length="186.40" shape="401.60,613.60 401.60,800.00"/>
    </edge>
    <edge id="02to01" from="02" to="01" priority="46" type="junction_out">
        <lane id="02to01_0" index="0" speed="11.11" length="172.80" shape="586.40,608.00 413.60,608.00"/>
        <lane id="02to01_1" index="1" speed="11.11" length="172.80" shape="586.40,604.80 413.60,604.80"/>
        <lane id="02to01_2" index="2" speed="11.11" length="172.80" shape="586.40,601.60 413.60,601.60"/>
    </edge>
    <edge id="02to05" from="02" to="05" priority="46" type="junction_out">
        <lane id="02to05_0" index="0" speed="11.11" length="172.80" shape="592.00,586.40 592.00,413.60"/>
        <lane id="02to05_1" index="1" speed="11.11" length="172.80" shape="595.20,586.40 595.20,413.60"/>
        <lane id="02to05_2" index="2" speed="11.11" length="172.80" shape="598.40,586.40 598.40,413.60"/>
    </edge>
    <edge id="02to12" from="02" to="12" priority="46" type="junction_out">
        <lane id="02to12_0" index="0" speed="11.11" length="186.40" shape="608.00,613.60 608.00,800.00"/>
        <lane id="02to12_1" index="1" speed="11.11" length="186.40" shape="604.80,613.60 604.80,800.00"/>
        <lane id="02to12_2" index="2" speed="11.11" length="186.40" shape="601.60,613.60 601.60,800.00"/>
    </edge>
    <edge id="02to13" from="02" to="13" priority="46" type="junction_out">
        <lane id="02to13_0" index="0" speed="11.11" length="186.40" shape="613.60,592.00 800.00,592.00"/>
        <lane id="02to13_1" index="1" speed="11.11" length="186.40" shape="613.60,595.20 800.00,595.20"/>
        <lane id="02to13_2" index="2" speed="11.11" length="186.40" shape="613.60,598.40 800.00,598.40"/>
    </edge>
    <edge id="03to00" from="03" to="00" priority="46" type="junction_out">
        <lane id="03to00_0" index="0" speed="11.11" length="172.80" shape="208.00,413.60 208.00,586.40"/>
        <lane id="03to00_1" index="1" speed="11.11" length="172.80" shape="204.80,413.60 204.80,586.40"/>
        <lane id="03to00_2" index="2" speed="11.11" length="172.80" shape="201.60,413.60 201.60,586.40"/>
    </edge>
    <edge id="03to04" from="03" to="04" priority="46" type="junction_out">
        <lane id="03to04_0" index="0" speed="11.11" length="172.80" shape="213.60,392.00 386.40,392.00"/>
        <lane id="03to04_1" index="1" speed="11.11" length="172.80" shape="213.60,395.20 386.40,395.20"/>
        <lane id="03to04_2" index="2" speed="11.11" length="172.80" shape="213.60,398.40 386.40,398.40"/>
    </edge>
    <edge id="03to06" from="03" to="06" priority="46" type="junction_out">
        <lane id="03to06_0" index="0" speed="11.11" length="172.80" shape="192.00,386.40 192.00,213.60"/>
        <lane id="03to06_1" index="1" speed="11.11" length="172.80" shape="195.20,386.40 195.20,213.60"/>
        <lane id="03to06_2" index="2" speed="11.11" length="172.80" shape="198.40,386.40 198.40,213.60"/>