<?xml version="1.0" encoding="UTF-8"?>

<!-- generated on 2023-01-13 15:52:06.135247 by osmWebWizard.py UNKNOWN
<configuration>
    <allow-fringe.min-length value="1000.0"/>
    <end value="3600"/>
    <fringe-factor value="5.1"/>
    <fringe-start-attributes value="departSpeed=&quot;max&quot;"/>
    <insertion-density value="25.0"/>
    <lanes value="True"/>
    <min-distance.fringe value="10.0"/>
    <min-distance value="300.0"/>
    <net-file value="/home/CAMPUS/blackbul/Projects/OSM-to-bounding-boxes/2023-01-13-15-51-50/osm.net.xml.gz"/>
    <remove-loops value="True"/>
    <route-file value="/home/CAMPUS/blackbul/Projects/OSM-to-bounding-boxes/2023-01-13-15-51-50/osm.passenger.rou.xml"/>
    <trip-attributes value="departLane=&quot;best&quot;"/>
    <output-trip-file value="/home/CAMPUS/blackbul/Projects/OSM-to-bounding-boxes/2023-01-13-15-51-50/osm.passenger.trips.xml"/>
    <prefix value="veh"/>
    <validate value="True"/>
    <vehicle-class value="passenger"/>
</configuration>
-->

<!-- generated on 2023-01-13 15:52:06 by Eclipse SUMO duarouter Version 1.15.0
<configuration xmlns:xsi="http://www.w3.org/2001/XMLSchema-instance" xsi:noNamespaceSchemaLocation="http://sumo.dlr.de/xsd/duarouterConfiguration.xsd">

    <input>
        <net-file value="/home/CAMPUS/blackbul/Projects/OSM-to-bounding-boxes/2023-01-13-15-51-50/osm.net.xml.gz"/>
        <route-files value="/home/CAMPUS/blackbul/Projects/OSM-to-bounding-boxes/2023-01-13-15-51-50/osm.passenger.trips.xml"/>
    </input>

    <output>
        <output-file value="/home/CAMPUS/blackbul/Projects/OSM-to-bounding-boxes/2023-01-13-15-51-50/osm.passenger.trips.xml.tmp"/>
        <alternatives-output value="NUL"/>
        <write-trips value="true"/>
    </output>

    <processing>
        <remove-loops value="true"/>
    </processing>

    <time>
        <begin value="0"/>
        <end value="3600"/>
    </time>

    <report>
        <no-warnings value="true"/>
        <ignore-errors value="true"/>
        <no-step-log value="true"/>
    </report>

</configuration>
-->

<routes xmlns:xsi="http://www.w3.org/2001/XMLSchema-instance" xsi:noNamespaceSchemaLocation="http://sumo.dlr.de/xsd/routes_file.xsd">
    <vType id="veh_passenger" vClass="passenger"/>
    <trip id="veh0" type="veh_passenger" depart="0.00" departLane="best" from="-610375443#1" to="-364470427"/>
    <trip id="veh1" type="veh_passenger" depart="23.88" departLane="best" departSpeed="max" from="364470427" to="-321443000#1"/>
    <trip id="veh2" type="veh_passenger" depart="47.76" departLane="best" departSpeed="max" from="-876624229#2" to="-321443000#0"/>
    <trip id="veh3" type="veh_passenger" depart="71.65" departLane="best" departSpeed="max" from="-267925924#1" to="360779398#1"/>
    <trip id="veh4" type="veh_passenger" depart="95.53" departLane="best" departSpeed="max" from="321443000#0" to="267925924#1"/>
    <trip id="veh5" type="veh_passenger" depart="119.41" departLane="best" from="-360779398#1" to="267925924#1"/>
    <trip id="veh6" type="veh_passenger" depart="143.29" departLane="best" departSpeed="max" from="364470427" to="267925924#0"/>
    <trip id="veh7" type="veh_passenger" depart="167.18" departLane="best" departSpeed="max" from="364470427" to="360779398#1"/>
    <trip id="veh8" type="veh_passenger" depart="191.06" departLane="best" from="-610375447#1" to="-364470427"/>
    <trip id="veh9" type="veh_passenger" depart="214.94" departLane="best" departSpeed="max" from="-267925924#1" to="-321443000#0"/>
    <trip id="veh10" type="veh_passenger" depart="238.82" departLane="best" from="610375443#0" to="267925924#1"/>
    <trip id="veh11" type="veh_passenger" depart="262.71" departLane="best" departSpeed="max" from="364470427" to="610375443#0"/>
    <trip id="veh12" type="veh_passenger" depart="286.59" departLane="best" departSpeed="max" from="321443000#0" to="876624229#1"/>
    <trip id="veh13" type="veh_passenger" depart="310.47" departLane="best" departSpeed="max" from="-876624229#2" to="267925924#1"/>
    <trip id="veh14" type="veh_passenger" depart="334.35" departLane="best" departSpeed="max" from="364470427" to="267925924#1"/>
    <trip id="veh15" type="veh_passenger" depart="358.24" departLane="best" from="610375443#0" to="267925924#1"/>
    <trip id="veh16" type="veh_passenger" depart="382.12" departLane="best" from="-610375443#0" to="-364470427"/>
    <trip id="veh17" type="veh_passenger" depart="406.00" departLane="best" departSpeed="max" from="-267925924#1" to="-364470427"/>
    <trip id="veh18" type="veh_passenger" depart="429.88" departLane="best" departSpeed="max" from="-267925924#1" to="-364470427"/>
    <trip id="veh19" type="veh_passenger" depart="453.77" departLane="best" from="-610375443#1" to="876624229#1"/>
    <trip id="veh20" type="veh_passenger" depart="477.65" departLane="best" departSpeed="max" from="321443000#0" to="267925924#1"/>
    <trip id="veh21" type="veh_passenger" depart="501.53" departLane="best" from="-876624229#0" to="267925924#1"/>
    <trip id="veh22" type="veh_passenger" depart="525.41" departLane="best" departSpeed="max" from="364470427" to="-610375444#0"/>
    <trip id="veh23" type="veh_passenger" depart="549.30" departLane="best" from="610375444#0" to="-364470427"/>
    <trip id="veh24" type="veh_passenger" depart="573.18" departLane="best" from="360779398#1" to="876624229#1"/>
    <trip id="veh25" type="veh_passenger" depart="597.06" departLane="best" from="-610375443#1" to="-364470427"/>
    <trip id="veh26" type="veh_passenger" depart="620.94" departLane="best" from="-610375443#1" to="-364470427"/>
    <trip id="veh27" type="veh_passenger" depart="644.83" departLane="best" departSpeed="max" from="321443000#0" to="-364470427"/>
    <trip id="veh28" type="veh_passenger" depart="668.71" departLane="best" departSpeed="max" from="321443000#0" to="876624229#1"/>
    <trip id="veh29" type="veh_passenger" depart="692.59" departLane="best" departSpeed="max" from="-876624229#2" to="-360779398#1"/>
    <trip id="veh30" type="veh_passenger" depart="716.47" departLane="best" departSpeed="max" from="-267925924#1" to="-321443000#0"/>
    <trip id="veh31" type="veh_passenger" depart="740.36" departLane="best" departSpeed="max" from="364470427" to="610375443#1"/>
    <trip id="veh32" type="veh_passenger" depart="764.24" departLane="best" departSpeed="max" from="-267925924#1" to="-610375443#0"/>
    <trip id="veh33" type="veh_passenger" depart="788.12" departLane="best" from="321443000#1" to="267925924#1"/>
    <trip id="veh34" type="veh_passenger" depart="812.00" departLane="best" departSpeed="max" from="-267925924#1" to="-610375444#0"/>
    <trip id="veh35" type="veh_passenger" depart="835.89" departLane="best" from="-610375443#1" to="-364470427"/>
    <trip id="veh36" type="veh_passenger" depart="859.77" departLane="best" departSpeed="max" from="-876624229#2" to="-321443000#1"/>
    <trip id="veh37" type="veh_passenger" depart="883.65" departLane="best" from="610375444#0" to="876624229#1"/>
    <trip id="veh38" type="veh_passenger" depart="907.53" departLane="best" from="610375444#0" to="267925924#1"/>
    <trip id="veh39" type="veh_passenger" depart="931.42" departLane="best" departSpeed="max" from="364470427" to="267925924#1"/>
    <trip id="veh40" type="veh_passenger" depart="955.30" departLane="best" departSpeed="max" from="364470427" to="267925924#0"/>
    <trip id="veh41" type="veh_passenger" depart="979.18" departLane="best" from="-267925924#0" to="-364470427"/>
    <trip id="veh42" type="veh_passenger" depart="1003.06" departLane="best" from="-267925924#0" to="876624229#1"/>
    <trip id="veh43" type="veh_passenger" depart="1026.95" departLane="best" from="-610375443#1" to="876624229#1"/>
    <trip id="veh44" type="veh_passenger" depart="1050.83" departLane="best" departSpeed="max" from="-267925924#1" to="876624229#0"/>
    <trip id="veh45" type="veh_passenger" depart="1074.71" departLane="best" departSpeed="max" from="364470427" to="-321443000#0"/>
    <trip id="veh46" type="veh_passenger" depart="1098.59" departLane="best" departSpeed="max" from="-876624229#2" to="267925924#1"/>
    <trip id="veh47" type="veh_passenger" depart="1122.48" departLane="best" from="-610375443#1" to="876624229#1"/>
    <trip id="veh48" type="veh_passenger" depart="1146.36" departLane="best" departSpeed="max" from="-876624229#2" to="-360779398#1"/>
    <trip id="veh49" type="veh_passenger" depart="1170.24" departLane="best" from="-360779398#1" to="-364470427"/>
    <trip id="veh50" type="veh_passenger" depart="1194.12" departLane="best" from="-876624229#0" to="267925924#1"/>
    <trip id="veh51" type="veh_passenger" depart="1218.01" departLane="best" departSpeed="max" from="-876624229#2" to="267925924#0"/>
    <trip id="veh52" type="veh_passenger" depart="1241.89" departLane="best" departSpeed="max" from="-267925924#1" to="-364470427"/>
    <trip id="veh53" type="veh_passenger" depart="1265.77" departLane="best" from="610375447#1" to="267925924#1"/>
    <trip id="veh54" type="veh_passenger" depart="1289.65" departLane="best" from="-610375443#0" to="876624229#1"/>
    <trip id="veh55" type="veh_passenger" depart="1313.54" departLane="best" from="610375444#0" to="267925924#1"/>
    <trip id="veh56" type="veh_passenger" depart="1337.42" departLane="best" departSpeed="max" from="-876624229#2" to="-610375444#0"/>
    <trip id="veh57" type="veh_passenger" depart="1361.30" departLane="best" departSpeed="max" from="364470427" to="360779398#1"/>
    <trip id="veh58" type="veh_passenger" depart="1385.18" departLane="best" departSpeed="max" from="-267925924#1" to="-610375444#0"/>
    <trip id="veh59" type="veh_passenger" depart="1409.07" departLane="best" departSpeed="max" from="-876624229#2" to="-610375447#1"/>
    <trip id="veh60" type="veh_passenger" depart="1432.95" departLane="best" departSpeed="max" from="364470427" to="-321443000#1"/>
    <trip id="veh61" type="veh_passenger" depart="1456.83" departLane="best" departSpeed="max" from="-876624229#2" to="-364470427"/>
    <trip id="veh62" type="veh_passenger" depart="1480.71" departLane="best" from="-610375443#0" to="-364470427"/>
    <trip id="veh63" type="veh_passenger" depart="1504.59" departLane="best" departSpeed="max" from="-876624229#2" to="-364470427"/>
    <trip id="veh64" type="veh_passenger" depart="1528.48" departLane="best" from="-610375443#0" to="876624229#1"/>
    <trip id="veh65" type="veh_passenger" depart="1552.36" departLane="best" from="610375447#1" to="876624229#1"/>
    <trip id="veh66" type="veh_passenger" depart="1576.24" departLane="best" departSpeed="max" from="-876624229#2" to="-360779398#1"/>
    <trip id="veh67" type="veh_passenger" depart="1600.12" departLane="best" departSpeed="max" from="-876624229#2" to="-321443000#0"/>
    <trip id="veh68" type="veh_passenger" depart="1624.01" departLane="best" departSpeed="max" from="-876624229#2" to="610375443#1"/>
    <trip id="veh69" type="veh_passenger" depart="1647.89" departLane="best" from="610375447#1" to="876624229#1"/>
    <trip id="veh70" type="veh_passenger" depart="1671.77" departLane="best" departSpeed="max" from="-267925924#1" to="-364470427"/>
    <trip id="veh71" type="veh_passenger" depart="1695.65" departLane="best" from="610375447#1" to="267925924#1"/>
    <trip id="veh72" type="veh_passenger" depart="1719.54" departLane="best" from="321443000#1" to="876624229#1"/>
    <trip id="veh73" type="veh_passenger" depart="1743.42" departLane="best" departSpeed="max" from="-267925924#1" to="360779398#1"/>
    <trip id="veh74" type="veh_passenger" depart="1767.30" departLane="best" from="-610375443#1" to="-364470427"/>
    <trip id="veh75" type="veh_passenger" depart="1791.18" departLane="best" departSpeed="max" from="321443000#0" to="267925924#1"/>
    <trip id="veh76" type="veh_passenger" depart="1815.07" departLane="best" departSpeed="max" from="-876624229#2" to="267925924#1"/>
    <trip id="veh77" type="veh_passenger" depart="1838.95" departLane="best" from="-267925924#0" to="876624229#1"/>
    <trip id="veh78" type="veh_passenger" depart="1862.83" departLane="best" from="321443000#1" to="-364470427"/>
    <trip id="veh79" type="veh_passenger" depart="1886.71" departLane="best" departSpeed="max" from="-267925924#1" to="-610375447#1"/>
    <trip id="veh80" type="veh_passenger" depart="1910.60" departLane="best" from="876624229#0" to="876624229#1"/>
    <trip id="veh81" type="veh_passenger" depart="1934.48" departLane="best" departSpeed="max" from="-267925924#1" to="360779398#1"/>
    <trip id="veh82" type="veh_passenger" depart="1958.36" departLane="best" from="-610375443#1" to="876624229#1"/>
    <trip id="veh83" type="veh_passenger" depart="1982.24" departLane="best" from="-610375443#1" to="876624229#1"/>
    <trip id="veh84" type="veh_passenger" depart="2006.13" departLane="best" departSpeed="max" from="364470427" to="360779398#1"/>
    <trip id="veh85" type="veh_passenger" depart="2030.01" departLane="best" departSpeed="max" from="321443000#0" to="876624229#1"/>
    <trip id="veh86" type="veh_passenger" depart="2053.89" departLane="best" from="321443000#1" to="876624229#1"/>
    <trip id="veh87" type="veh_passenger" depart="2077.77" departLane="best" departSpeed="max" from="-267925924#1" to="-321443000#0"/>
    <trip id="veh88" type="veh_passenger" depart="2101.66" departLane="best" departSpeed="max" from="364470427" to="360779398#1"/>
    <trip id="veh89" type="veh_passenger" depart="2125.54" departLane="best" departSpeed="max" from="321443000#0" to="-364470427"/>
    <trip id="veh90" type="veh_passenger" depart="2149.42" departLane="best" departSpeed="max" from="-876624229#2" to="-364470427"/>
    <trip id="veh91" type="veh_passenger" depart="2173.30" departLane="best" departSpeed="max" from="321443000#0" to="-364470427"/>
    <trip id="veh92" type="veh_passenger" depart="2197.19" departLane="best" departSpeed="max" from="364470427" to="267925924#1"/>
    <trip id="veh93" type="veh_passenger" depart="2221.07" departLane="best" departSpeed="max" from="-876624229#2" to="267925924#0"/>
    <trip id="veh94" type="veh_passenger" depart="2244.95" departLane="best" departSpeed="max" from="-267925924#1" to="876624229#1"/>
    <trip id="veh95" type="veh_passenger" depart="2268.83" departLane="best" from="610375444#0" to="267925924#1"/>
    <trip id="veh96" type="veh_passenger" depart="2292.72" departLane="best" departSpeed="max" from="364470427" to="267925924#1"/>
    <trip id="veh97" type="veh_passenger" depart="2316.60" departLane="best" departSpeed="max" from="-267925924#1" to="-321443000#0"/>
    <trip id="veh98" type="veh_passenger" depart="2340.48" departLane="best" from="610375444#0" to="876624229#1"/>
    <trip id="veh99" type="veh_passenger" depart="2364.36" departLane="best" departSpeed="max" from="364470427" to="876624229#0"/>
    <trip id="veh100" type="veh_passenger" depart="2388.25" departLane="best" departSpeed="max" from="364470427" to="876624229#1"/>
    <trip id="veh101" type="veh_passenger" depart="2412.13" departLane="best" departSpeed="max" from="-876624229#2" to="267925924#1"/>
    <trip id="veh102" type="veh_passenger" depart="2436.01" departLane="best" departSpeed="max" from="-267925924#1" to="876624229#1"/>
    <trip id="veh103" type="veh_passenger" depart="2459.89" departLane="best" from="-610375443#0" to="876624229#1"/>
    <trip id="veh104" type="veh_passenger" depart="2483.78" departLane="best" departSpeed="max" from="364470427" to="876624229#1"/>
    <trip id="veh105" type="veh_passenger" depart="2507.66" departLane="best" from="610375447#1" to="876624229#1"/>
    <trip id="veh106" type="veh_passenger" depart="2531.54" departLane="best" departSpeed="max" from="364470427" to="876624229#0"/>
    <trip id="veh107" type="veh_passenger" depart="2555.42" departLane="best" departSpeed="max" from="364470427" to="-321443000#0"/>
    <trip id="veh108" type="veh_passenger" depart="2579.31" departLane="best" departSpeed="max" from="-876624229#2" to="-364470427"/>
    <trip id="veh109" type="veh_passenger" depart="2603.19" departLane="best" from="-610375447#1" to="-364470427"/>
    <trip id="veh110" type="veh_passenger" depart="2627.07" departLane="best" from="-876624229#0" to="267925924#1"/>
    <trip id="veh111" type="veh_passenger" depart="2650.95" departLane="best" from="-610375447#1" to="-364470427"/>
    <trip id="veh112" type="veh_passenger" depart="2674.84" departLane="best" departSpeed="max" from="-267925924#1" to="-610375444#0"/>
    <trip id="veh113" type="veh_passenger" depart="2698.72" departLane="best" departSpeed="max" from="321443000#0" to="267925924#0"/>
    <trip id="veh114" type="veh_passenger" depart="2722.60" departLane="best" departSpeed="max" from="-876624229#2" to="267925924#1"/>
    <trip id="veh115" type="veh_passenger" depart="2746.48" departLane="best" from="-267925924#0" to="876624229#1"/>
    <trip id="veh116" type="veh_passenger" depart="2770.37" departLane="best" departSpeed="max" from="364470427" to="-321443000#1"/>
    <trip id="veh117" type="veh_passenger" depart="2794.25" departLane="best" from="321443000#1" to="-364470427"/>
    <trip id="veh118" type="veh_passenger" depart="2818.13" departLane="best" departSpeed="max" from="-876624229#2" to="-364470427"/>
    <trip id="veh119" type="veh_passenger" depart="2842.01" departLane="best" from="610375444#0" to="267925924#1"/>
    <trip id="veh120" type="veh_passenger" depart="2865.90" departLane="best" from="610375444#0" to="267925924#1"/>
    <trip id="veh121" type="veh_passenger" depart="2889.78" departLane="best" from="-267925924#0" to="-364470427"/>
    <trip id="veh122" type="veh_passenger" depart="2913.66" departLane="best" departSpeed="max" from="-876624229#2" to="267925924#1"/>
    <trip id="veh123" type="veh_passenger" depart="2937.54" departLane="best" departSpeed="max" from="-876624229#2" to="-360779398#1"/>
    <trip id="veh124" type="veh_passenger" depart="2961.42" departLane="best" departSpeed="max" from="364470427" to="-321443000#1"/>
    <trip id="veh125" type="veh_passenger" depart="2985.31" departLane="best" departSpeed="max" from="321443000#0" to="-364470427"/>
    <trip id="veh126" type="veh_passenger" depart="3009.19" departLane="best" departSpeed="max" from="364470427" to="610375443#1"/>
    <trip id="veh127" type="veh_passenger" depart="3033.07" departLane="best" from="321443000#1" to="-364470427"/>
    <trip id="veh128" type="veh_passenger" depart="3056.95" departLane="best" departSpeed="max" from="-876624229#2" to="267925924#1"/>
    <trip id="veh129" type="veh_passenger" depart="3080.84" departLane="best" departSpeed="max" from="-876624229#2" to="-364470427"/>
    <trip id="veh130" type="veh_passenger" depart="3104.72" departLane="best" departSpeed="max" from="364470427" to="-610375444#0"/>
    <trip id="veh131" type="veh_passenger" depart="3128.60" departLane="best" from="321443000#1" to="876624229#1"/>
    <trip id="veh132" type="veh_passenger" depart="3152.48" departLane="best" departSpeed="max" from="-876624229#2" to="-610375444#0"/>
    <trip id="veh133" type="veh_passenger" depart="3176.37" departLane="best" from="321443000#1" to="876624229#1"/>
    <trip id="veh134" type="veh_passenger" depart="3200.25" departLane="best" departSpeed="max" from="321443000#0" to="876624229#1"/>
    <trip id="veh135" type="veh_passenger" depart="3224.13" departLane="best" departSpeed="max" from="364470427" to="876624229#0"/>
    <trip id="veh136" type="veh_passenger" depart="3248.01" departLane="best" departSpeed="max" from="364470427" to="267925924#1"/>
    <trip id="veh137" type="veh_passenger" depart="3271.90" departLane="best" departSpeed="max" from="-876624229#2" to="-364470427"/>
    <trip id="veh138" type="veh_passenger" depart="3295.78" departLane="best" departSpeed="max" from="364470427" to="267925924#0"/>
    <trip id="veh139" type="veh_passenger" depart="3319.66" departLane="best" departSpeed="max" from="321443000#0" to="-364470427"/>
    <trip id="veh140" type="veh_passenger" depart="3343.54" departLane="best" departSpeed="max" from="-267925924#1" to="-364470427"/>
    <trip id="veh141" type="veh_passenger" depart="3367.43" departLane="best" from="-610375443#1" to="-364470427"/>
    <trip id="veh142" type="veh_passenger" depart="3391.31" departLane="best" departSpeed="max" from="-876624229#2" to="267925924#1"/>
    <trip id="veh143" type="veh_passenger" depart="3415.19" departLane="best" departSpeed="max" from="-876624229#2" to="-360779398#1"/>
    <trip id="veh144" type="veh_passenger" depart="3439.07" departLane="best" departSpeed="max" from="-876624229#2" to="267925924#0"/>
    <trip id="veh145" type="veh_passenger" depart="3462.96" departLane="best" from="-610375443#0" to="876624229#1"/>
    <trip id="veh146" type="veh_passenger" depart="3486.84" departLane="best" departSpeed="max" from="-876624229#2" to="610375443#1"/>
    <trip id="veh147" type="veh_passenger" depart="3510.72" departLane="best" departSpeed="max" from="321443000#0" to="267925924#1"/>
    <trip id="veh148" type="veh_passenger" depart="3534.60" departLane="best" departSpeed="max" from="-876624229#2" to="-321443000#0"/>
    <trip id="veh149" type="veh_passenger" depart="3558.49" departLane="best" departSpeed="max" from="-876624229#2" to="-321443000#1"/>
    <trip id="veh150" type="veh_passenger" depart="3582.37" departLane="best" departSpeed="max" from="-876624229#2" to="-321443000#0"/>
</routes>
