<?xml version="1.0" encoding="UTF-8"?>

<!-- generated on 2022-12-06 04:59:06 by Eclipse SUMO netedit Version 1.15.0
<configuration xmlns:xsi="http://www.w3.org/2001/XMLSchema-instance" xsi:noNamespaceSchemaLocation="http://sumo.dlr.de/xsd/netconvertConfiguration.xsd">

    <input>
        <sumo-net-file value="/home/CAMPUS/180205312/SUMO_multi_junction_control/Grid1by4/Grid1by4.net.xml"/>
    </input>

    <output>
        <output-file value="/home/CAMPUS/180205312/SUMO_multi_junction_control/Grid1by4/Grid1by4.net.xml"/>
    </output>

    <processing>
        <geometry.min-radius.fix.railways value="false"/>
        <geometry.max-grade.fix value="false"/>
        <offset.disable-normalization value="true"/>
        <lefthand value="0"/>
    </processing>

    <junctions>
        <no-turnarounds value="true"/>
        <junctions.corner-detail value="5"/>
        <junctions.limit-turn-speed value="5.50"/>
        <rectangular-lane-cut value="0"/>
    </junctions>

    <pedestrian>
        <walkingareas value="0"/>
    </pedestrian>

</configuration>
-->

<net version="1.9" junctionCornerDetail="5" limitTurnSpeed="5.50" xmlns:xsi="http://www.w3.org/2001/XMLSchema-instance" xsi:noNamespaceSchemaLocation="http://sumo.dlr.de/xsd/net_file.xsd">

    <location netOffset="0.00,0.00" convBoundary="-200.00,-100.00,800.00,300.00" origBoundary="-10000000000.00,-10000000000.00,10000000000.00,10000000000.00" projParameter="!"/>

    <edge id=":00_0" function="internal">
        <lane id=":00_0_0" index="0" speed="6.51" length="9.03" shape="-8.00,113.60 -8.35,111.15 -9.40,109.40 -11.15,108.35 -13.60,108.00"/>
    </edge>
    <edge id=":00_1" function="internal">
        <lane id=":00_1_0" index="0" speed="13.89" length="27.20" shape="-4.80,113.60 -4.80,86.40"/>
    </edge>
    <edge id=":00_2" function="internal">
        <lane id=":00_2_0" index="0" speed="10.36" length="24.51" shape="-1.60,113.60 -0.65,106.95 2.20,102.20 6.95,99.35 13.60,98.40"/>
    </edge>
    <edge id=":00_3" function="internal">
        <lane id=":00_3_0" index="0" speed="6.51" length="9.03" shape="13.60,108.00 11.15,108.35 9.40,109.40 8.35,111.15 8.00,113.60"/>
    </edge>
    <edge id=":00_4" function="internal">
        <lane id=":00_4_0" index="0" speed="13.89" length="27.20" shape="13.60,104.80 -13.60,104.80"/>
    </edge>
    <edge id=":00_5" function="internal">
        <lane id=":00_5_0" index="0" speed="10.36" length="24.51" shape="13.60,101.60 6.95,100.65 2.20,97.80 -0.65,93.05 -1.60,86.40"/>
    </edge>
    <edge id=":00_6" function="internal">
        <lane id=":00_6_0" index="0" speed="6.51" length="9.03" shape="8.00,86.40 8.35,88.85 9.40,90.60 11.15,91.65 13.60,92.00"/>
    </edge>
    <edge id=":00_7" function="internal">
        <lane id=":00_7_0" index="0" speed="13.89" length="27.20" shape="4.80,86.40 4.80,113.60"/>
    </edge>
    <edge id=":00_8" function="internal">
        <lane id=":00_8_0" index="0" speed="10.36" length="24.51" shape="1.60,86.40 0.65,93.05 -2.20,97.80 -6.95,100.65 -13.60,101.60"/>
    </edge>
    <edge id=":00_9" function="internal">
        <lane id=":00_9_0" index="0" speed="6.51" length="9.03" shape="-13.60,92.00 -11.15,91.65 -9.40,90.60 -8.35,88.85 -8.00,86.40"/>
    </edge>
    <edge id=":00_10" function="internal">
        <lane id=":00_10_0" index="0" speed="13.89" length="27.20" shape="-13.60,95.20 13.60,95.20"/>
    </edge>
    <edge id=":00_11" function="internal">
        <lane id=":00_11_0" index="0" speed="10.36" length="24.51" shape="-13.60,98.40 -6.95,99.35 -2.20,102.20 0.65,106.95 1.60,113.60"/>
    </edge>
    <edge id=":01_0" function="internal">
        <lane id=":01_0_0" index="0" speed="6.51" length="9.03" shape="192.00,113.60 191.65,111.15 190.60,109.40 188.85,108.35 186.40,108.00"/>
    </edge>
    <edge id=":01_1" function="internal">
        <lane id=":01_1_0" index="0" speed="13.89" length="27.20" shape="195.20,113.60 195.20,86.40"/>
    </edge>
    <edge id=":01_2" function="internal">
        <lane id=":01_2_0" index="0" speed="10.36" length="24.51" shape="198.40,113.60 199.35,106.95 202.20,102.20 206.95,99.35 213.60,98.40"/>
    </edge>
    <edge id=":01_3" function="internal">
        <lane id=":01_3_0" index="0" speed="6.51" length="9.03" shape="213.60,108.00 211.15,108.35 209.40,109.40 208.35,111.15 208.00,113.60"/>
    </edge>
    <edge id=":01_4" function="internal">
        <lane id=":01_4_0" index="0" speed="13.89" length="27.20" shape="213.60,104.80 186.40,104.80"/>
    </edge>
    <edge id=":01_5" function="internal">
        <lane id=":01_5_0" index="0" speed="10.36" length="24.51" shape="213.60,101.60 206.95,100.65 202.20,97.80 199.35,93.05 198.40,86.40"/>
    </edge>
    <edge id=":01_6" function="internal">
        <lane id=":01_6_0" index="0" speed="6.51" length="9.03" shape="208.00,86.40 208.35,88.85 209.40,90.60 211.15,91.65 213.60,92.00"/>
    </edge>
    <edge id=":01_7" function="internal">
        <lane id=":01_7_0" index="0" speed="13.89" length="27.20" shape="204.80,86.40 204.80,113.60"/>
    </edge>
    <edge id=":01_8" function="internal">
        <lane id=":01_8_0" index="0" speed="10.36" length="24.51" shape="201.60,86.40 200.65,93.05 197.80,97.80 193.05,100.65 186.40,101.60"/>
    </edge>
    <edge id=":01_9" function="internal">
        <lane id=":01_9_0" index="0" speed="6.51" length="9.03" shape="186.40,92.00 188.85,91.65 190.60,90.60 191.65,88.85 192.00,86.40"/>
    </edge>
    <edge id=":01_10" function="internal">
        <lane id=":01_10_0" index="0" speed="13.89" length="27.20" shape="186.40,95.20 213.60,95.20"/>
    </edge>
    <edge id=":01_11" function="internal">
        <lane id=":01_11_0" index="0" speed="10.36" length="24.51" shape="186.40,98.40 193.05,99.35 197.80,102.20 200.65,106.95 201.60,113.60"/>
    </edge>
    <edge id=":02_0" function="internal">
        <lane id=":02_0_0" index="0" speed="6.51" length="9.03" shape="392.00,113.60 391.65,111.15 390.60,109.40 388.85,108.35 386.40,108.00"/>
    </edge>
    <edge id=":02_1" function="internal">
        <lane id=":02_1_0" index="0" speed="13.89" length="27.20" shape="395.20,113.60 395.20,86.40"/>
    </edge>
    <edge id=":02_2" function="internal">
        <lane id=":02_2_0" index="0" speed="10.36" length="24.51" shape="398.40,113.60 399.35,106.95 402.20,102.20 406.95,99.35 413.60,98.40"/>
    </edge>
    <edge id=":02_3" function="internal">
        <lane id=":02_3_0" index="0" speed="6.51" length="9.03" shape="413.60,108.00 411.15,108.35 409.40,109.40 408.35,111.15 408.00,113.60"/>
    </edge>
    <edge id=":02_4" function="internal">
        <lane id=":02_4_0" index="0" speed="13.89" length="27.20" shape="413.60,104.80 386.40,104.80"/>
    </edge>
    <edge id=":02_5" function="internal">
        <lane id=":02_5_0" index="0" speed="10.36" length="24.51" shape="413.60,101.60 406.95,100.65 402.20,97.80 399.35,93.05 398.40,86.40"/>
    </edge>
    <edge id=":02_6" function="internal">
        <lane id=":02_6_0" index="0" speed="6.51" length="9.03" shape="408.00,86.40 408.35,88.85 409.40,90.60 411.15,91.65 413.60,92.00"/>
    </edge>
    <edge id=":02_7" function="internal">
        <lane id=":02_7_0" index="0" speed="13.89" length="27.20" shape="404.80,86.40 404.80,113.60"/>
    </edge>
    <edge id=":02_8" function="internal">
        <lane id=":02_8_0" index="0" speed="10.36" length="24.51" shape="401.60,86.40 400.65,93.05 397.80,97.80 393.05,100.65 386.40,101.60"/>
    </edge>
    <edge id=":02_9" function="internal">
        <lane id=":02_9_0" index="0" speed="6.51" length="9.03" shape="386.40,92.00 388.85,91.65 390.60,90.60 391.65,88.85 392.00,86.40"/>
    </edge>
    <edge id=":02_10" function="internal">
        <lane id=":02_10_0" index="0" speed="13.89" length="27.20" shape="386.40,95.20 413.60,95.20"/>
    </edge>
    <edge id=":02_11" function="internal">
        <lane id=":02_11_0" index="0" speed="10.36" length="24.51" shape="386.40,98.40 393.05,99.35 397.80,102.20 400.65,106.95 401.60,113.60"/>
    </edge>
    <edge id=":03_0" function="internal">
        <lane id=":03_0_0" index="0" speed="6.51" length="9.03" shape="592.00,113.60 591.65,111.15 590.60,109.40 588.85,108.35 586.40,108.00"/>
    </edge>
    <edge id=":03_1" function="internal">
        <lane id=":03_1_0" index="0" speed="13.89" length="27.20" shape="595.20,113.60 595.20,86.40"/>
    </edge>
    <edge id=":03_2" function="internal">
        <lane id=":03_2_0" index="0" speed="10.36" length="24.51" shape="598.40,113.60 599.35,106.95 602.20,102.20 606.95,99.35 613.60,98.40"/>
    </edge>
    <edge id=":03_3" function="internal">
        <lane id=":03_3_0" index="0" speed="6.51" length="9.03" shape="613.60,108.00 611.15,108.35 609.40,109.40 608.35,111.15 608.00,113.60"/>
    </edge>
    <edge id=":03_4" function="internal">
        <lane id=":03_4_0" index="0" speed="13.89" length="27.20" shape="613.60,104.80 586.40,104.80"/>
    </edge>
    <edge id=":03_5" function="internal">
        <lane id=":03_5_0" index="0" speed="10.36" length="24.51" shape="613.60,101.60 606.95,100.65 602.20,97.80 599.35,93.05 598.40,86.40"/>
    </edge>
    <edge id=":03_6" function="internal">
        <lane id=":03_6_0" index="0" speed="6.51" length="9.03" shape="608.00,86.40 608.35,88.85 609.40,90.60 611.15,91.65 613.60,92.00"/>
    </edge>
    <edge id=":03_7" function="internal">
        <lane id=":03_7_0" index="0" speed="13.89" length="27.20" shape="604.80,86.40 604.80,113.60"/>
    </edge>
    <edge id=":03_8" function="internal">
        <lane id=":03_8_0" index="0" speed="10.36" length="24.51" shape="601.60,86.40 600.65,93.05 597.80,97.80 593.05,100.65 586.40,101.60"/>
    </edge>
    <edge id=":03_9" function="internal">
        <lane id=":03_9_0" index="0" speed="6.51" length="9.03" shape="586.40,92.00 588.85,91.65 590.60,90.60 591.65,88.85 592.00,86.40"/>
    </edge>
    <edge id=":03_10" function="internal">
        <lane id=":03_10_0" index="0" speed="13.89" length="27.20" shape="586.40,95.20 613.60,95.20"/>
    </edge>
    <edge id=":03_11" function="internal">
        <lane id=":03_11_0" index="0" speed="10.36" length="24.51" shape="586.40,98.40 593.05,99.35 597.80,102.20 600.65,106.95 601.60,113.60"/>
    </edge>

    <edge id="00to01" from="00" to="01" priority="-1">
        <lane id="00to01_0" index="0" speed="13.89" length="172.80" shape="13.60,92.00 186.40,92.00"/>
        <lane id="00to01_1" index="1" speed="13.89" length="172.80" shape="13.60,95.20 186.40,95.20"/>
        <lane id="00to01_2" index="2" speed="13.89" length="172.80" shape="13.60,98.40 186.40,98.40"/>
    </edge>
    <edge id="00to04" from="00" to="04" priority="-1">
        <lane id="00to04_0" index="0" speed="13.89" length="186.40" shape="8.00,113.60 8.00,300.00"/>
        <lane id="00to04_1" index="1" speed="13.89" length="186.40" shape="4.80,113.60 4.80,300.00"/>
        <lane id="00to04_2" index="2" speed="13.89" length="186.40" shape="1.60,113.60 1.60,300.00"/>
    </edge>
    <edge id="00to0c" from="00" to="0c" priority="-1">
        <lane id="00to0c_0" index="0" speed="13.89" length="186.40" shape="-8.00,86.40 -8.00,-100.00"/>
        <lane id="00to0c_1" index="1" speed="13.89" length="186.40" shape="-4.80,86.40 -4.80,-100.00"/>
        <lane id="00to0c_2" index="2" speed="13.89" length="186.40" shape="-1.60,86.40 -1.60,-100.00"/>
    </edge>
    <edge id="00to0d" from="00" to="0d" priority="-1">
        <lane id="00to0d_0" index="0" speed="13.89" length="186.40" shape="-13.60,108.00 -200.00,108.00"/>
        <lane id="00to0d_1" index="1" speed="13.89" length="186.40" shape="-13.60,104.80 -200.00,104.80"/>
        <lane id="00to0d_2" index="2" speed="13.89" length="186.40" shape="-13.60,101.60 -200.00,101.60"/>
    </edge>
    <edge id="01to00" from="01" to="00" priority="-1">
        <lane id="01to00_0" index="0" speed="13.89" length="172.80" shape="186.40,108.00 13.60,108.00"/>
        <lane id="01to00_1" index="1" speed="13.89" length="172.80" shape="186.40,104.80 13.60,104.80"/>
        <lane id="01to00_2" index="2" speed="13.89" length="172.80" shape="186.40,101.60 13.60,101.60"/>
    </edge>
    <edge id="01to02" from="01" to="02" priority="-1">
        <lane id="01to02_0" index="0" speed="13.89" length="172.80" shape="213.60,92.00 386.40,92.00"/>
        <lane id="01to02_1" index="1" speed="13.89" length="172.80" shape="213.60,95.20 386.40,95.20"/>
        <lane id="01to02_2" index="2" speed="13.89" length="172.80" shape="213.60,98.40 386.40,98.40"/>
    </edge>
    <edge id="01to05" from="01" to="05" priority="-1">
        <lane id="01to05_0" index="0" speed="13.89" length="186.40" shape="208.00,113.60 208.00,300.00"/>
        <lane id="01to05_1" index="1" speed="13.89" length="186.40" shape="204.80,113.60 204.80,300.00"/>
        <lane id="01to05_2" index="2" speed="13.89" length="186.40" shape="201.60,113.60 201.60,300.00"/>
    </edge>
    <edge id="01to0b" from="01" to="0b" priority="-1">
        <lane id="01to0b_0" index="0" speed="13.89" length="186.40" shape="192.00,86.40 192.00,-100.00"/>
        <lane id="01to0b_1" index="1" speed="13.89" length="186.40" shape="195.20,86.40 195.20,-100.00"/>
        <lane id="01to0b_2" index="2" speed="13.89" length="186.40" shape="198.40,86.40 198.40,-100.00"/>
    </edge>
    <edge id="02to01" from="02" to="01" priority="-1">
        <lane id="02to01_0" index="0" speed="13.89" length="172.80" shape="386.40,108.00 213.60,108.00"/>
        <lane id="02to01_1" index="1" speed="13.89" length="172.80" shape="386.40,104.80 213.60,104.80"/>
        <lane id="02to01_2" index="2" speed="13.89" length="172.80" shape="386.40,101.60 213.60,101.60"/>
    </edge>
    <edge id="02to03" from="02" to="03" priority="-1">
        <lane id="02to03_0" index="0" speed="13.89" length="172.80" shape="413.60,92.00 586.40,92.00"/>
        <lane id="02to03_1" index="1" speed="13.89" length="172.80" shape="413.60,95.20 586.40,95.20"/>
        <lane id="02to03_2" index="2" speed="13.89" length="172.80" shape="413.60,98.40 586.40,98.40"/>
    </edge>
    <edge id="02to06" from="02" to="06" priority="-1">
        <lane id="02to06_0" index="0" speed="13.89" length="186.40" shape="408.00,113.60 408.00,300.00"/>
        <lane id="02to06_1" index="1" speed="13.89" length="186.40" shape="404.80,113.60 404.80,300.00"/>
        <lane id="02to06_2" index="2" speed="13.89" length="186.40" shape="401.60,113.60 401.60,300.00"/>
    </edge>
    <edge id="02to0a" from="02" to="0a" priority="-1">
        <lane id="02to0a_0" index="0" speed="13.89" length="186.40" shape="392.00,86.40 392.00,-100.00"/>
        <lane id="02to0a_1" index="1" speed="13.89" length="186.40" shape="395.20,86.40 395.20,-100.00"/>
        <lane id="02to0a_2" index="2" speed="13.89" length="186.40" shape="398.40,86.40 398.40,-100.00"/>
    </edge>
    <edge id="03to02" from="03" to="02" priority="-1">
        <lane id="03to02_0" index="0" speed="13.89" length="172.80" shape="586.40,108.00 413.60,108.00"/>
        <lane id="03to02_1" index="1" speed="13.89" length="172.80" shape="586.40,104.80 413.60,104.80"/>
        <lane id="03to02_2" index="2" speed="13.89" length="172.80" shape="586.40,101.60 413.60,101.60"/>
    </edge>
    <edge id="03to07" from="03" to="07" priority="-1">
        <lane id="03to07_0" index="0" speed="13.89" length="186.40" shape="608.00,113.60 608.00,300.00"/>
        <lane id="03to07_1" index="1" speed="13.89" length="186.40" shape="604.80,113.60 604.80,300.00"/>
        <lane id="03to07_2" index="2" speed="13.89" length="186.40" shape="601.60,113.60 601.60,300.00"/>
    </edge>
    <edge id="03to08" from="03" to="08" priority="-1">
        <lane id="03to08_0" index="0" speed="13.89" length="186.40" shape="613.60,92.00 800.00,92.00"/>
        <lane id="03to08_1" index="1" speed="13.89" length="186.40" shape="613.60,95.20 800.00,95.20"/>
        <lane id="03to08_2" index="2" speed="13.89" length="186.40" shape="613.60,98.40 800.00,98.40"/>
    </edge>
    <edge id="03to09" from="03" to="09" priority="-1">
        <lane id="03to09_0" index="0" speed="13.89" length="186.40" shape="592.00,86.40 592.00,-100.00"/>
        <lane id="03to09_1" index="1" speed="13.89" length="186.40" shape="595.20,86.40 595.20,-100.00"/>
        <lane id="03to09_2" index="2" speed="13.89" length="186.40" shape="598.40,86.40 598.40,-100.00"/>
    </edge>
    <edge id="04to00" from="04" to="00" priority="-1">
        <lane id="04to00_0" index="0" speed="13.89" length="186.40" shape="-8.00,300.00 -8.00,113.60"/>
        <lane id="04to00_1" index="1" speed="13.89" length="186.40" shape="-4.80,300.00 -4.80,113.60"/>
        <lane id="04to00_2" index="2" speed="13.89" length="186.40" shape="-1.60,300.00 -1.60,113.60"/>
    </edge>
    <edge id="05to01" from="05" to="01" priority="-1">
        <lane id="05to01_0" index="0" speed="13.89" length="186.40" shape="192.00,300.00 192.00,113.60"/>
        <lane id="05to01_1" index="1" speed="13.89" length="186.40" shape="195.20,300.00 195.20,113.60"/>
        <lane id="05to01_2" index="2" speed="13.89" length="186.40" shape="198.40,300.00 198.40,113.60"/>
    </edge>
    <edge id="06to02" from="06" to="02" priority="-1">
        <lane id="06to02_0" index="0" speed="13.89" length="186.40" shape="392.00,300.00 392.00,113.60"/>
        <lane id="06to02_1" index="1" speed="13.89" length="186.40" shape="395.20,300.00 395.20,113.60"/>
        <lane id="06to02_2" index="2" speed="13.89" length="186.40" shape="398.40,300.00 398.40,113.60"/>
    </edge>
    <edge id="07to03" from="07" to="03" priority="-1">
        <lane id="07to03_0" index="0" speed="13.89" length="186.40" shape="592.00,300.00 592.00,113.60"/>
        <lane id="07to03_1" index="1" speed="13.89" length="186.40" shape="595.20,300.00 595.20,113.60"/>
        <lane id="07to03_2" index="2" speed="13.89" length="186.40" shape="598.40,300.00 598.40,113.60"/>
    </edge>
    <edge id="08to03" from="08" to="03" priority="-1">
        <lane id="08to03_0" index="0" speed="13.89" length="186.40" shape="800.00,108.00 613.60,108.00"/>
        <lane id="08to03_1" index="1" speed="13.89" length="186.40" shape="800.00,104.80 613.60,104.80"/>
        <lane id="08to03_2" index="2" speed="13.89" length="186.40" shape="800.00,101.60 613.60,101.60"/>
    </edge>
    <edge id="09to03" from="09" to="03" priority="-1">
        <lane id="09to03_0" index="0" speed="13.89" length="186.40" shape="608.00,-100.00 608.00,86.40"/>
        <lane id="09to03_1" index="1" speed="13.89" length="186.40" shape="604.80,-100.00 604.80,86.40"/>
        <lane id="09to03_2" index="2" speed="13.89" length="186.40" shape="601.60,-100.00 601.60,86.40"/>
    </edge>
    <edge id="0ato02" from="0a" to="02" priority="-1">
        <lane id="0ato02_0" index="0" speed="13.89" length="186.40" shape="408.00,-100.00 408.00,86.40"/>
        <lane id="0ato02_1" index="1" speed="13.89" length="186.40" shape="404.80,-100.00 404.80,86.40"/>
        <lane id="0ato02_2" index="2" speed="13.89" length="186.40" shape="401.60,-100.00 401.60,86.40"/>
    </edge>
    <edge id="0bto01" from="0b" to="01" priority="-1">
        <lane id="0bto01_0" index="0" speed="13.89" length="186.40" shape="208.00,-100.00 208.00,86.40"/>
        <lane id="0bto01_1" index="1" speed="13.89" length="186.40" shape="204.80,-100.00 204.80,86.40"/>
        <lane id="0bto01_2" index="2" speed="13.89" length="186.40" shape="201.60,-100.00 201.60,86.40"/>
    </edge>
    <edge id="0cto00" from="0c" to="00" priority="-1">
        <lane id="0cto00_0" index="0" speed="13.89" length="186.40" shape="8.00,-100.00 8.00,86.40"/>
        <lane id="0cto00_1" index="1" speed="13.89" length="186.40" shape="4.80,-100.00 4.80,86.40"/>
        <lane id="0cto00_2" index="2" speed="13.89" length="186.40" shape="1.60,-100.00 1.60,86.40"/>
    </edge>
    <edge id="0dto00" from="0d" to="00" priority="-1">
        <lane id="0dto00_0" index="0" speed="13.89" length="186.40" shape="-200.00,92.00 -13.60,92.00"/>
        <lane id="0dto00_1" index="1" speed="13.89" length="186.40" shape="-200.00,95.20 -13.60,95.20"/>
        <lane id="0dto00_2" index="2" speed="13.89" length="186.40" shape="-200.00,98.40 -13.60,98.40"/>
    </edge>

    <tlLogic id="00" type="static" programID="0" offset="0">
        <phase duration="30" state="gGGgrrgrrgrr"/>
        <phase duration="30" state="grrgGGgrrgrr"/>
        <phase duration="30" state="grrgrrgGGgrr"/>
        <phase duration="30" state="grrgrrgrrgGG"/>
    </tlLogic>
    <tlLogic id="01" type="static" programID="0" offset="0">
        <phase duration="30" state="gGGgrrgrrgrr"/>
        <phase duration="30" state="grrgGGgrrgrr"/>
        <phase duration="30" state="grrgrrgGGgrr"/>
        <phase duration="30" state="grrgrrgrrgGG"/>
    </tlLogic>
    <tlLogic id="02" type="static" programID="0" offset="0">
        <phase duration="30" state="gGGgrrgrrgrr"/>
        <phase duration="30" state="grrgGGgrrgrr"/>
        <phase duration="30" state="grrgrrgGGgrr"/>
        <phase duration="30" state="grrgrrgrrgGG"/>
    </tlLogic>
    <tlLogic id="03" type="static" programID="0" offset="0">
        <phase duration="30" state="gGGgrrgrrgrr"/>
        <phase duration="30" state="grrgGGgrrgrr"/>
        <phase duration="30" state="grrgrrgGGgrr"/>
        <phase duration="30" state="grrgrrgrrgGG"/>
    </tlLogic>

    <junction id="00" type="traffic_light" x="0.00" y="100.00" incLanes="04to00_0 04to00_1 04to00_2 01to00_0 01to00_1 01to00_2 0cto00_0 0cto00_1 0cto00_2 0dto00_0 0dto00_1 0dto00_2" intLanes=":00_0_0 :00_1_0 :00_2_0 :00_3_0 :00_4_0 :00_5_0 :00_6_0 :00_7_0 :00_8_0 :00_9_0 :00_10_0 :00_11_0" shape="-9.60,113.60 9.60,113.60 10.04,111.38 10.60,110.60 11.38,110.04 12.38,109.71 13.60,109.60 13.60,90.40 11.38,89.96 10.60,89.40 10.04,88.62 9.71,87.62 9.60,86.40 -9.60,86.40 -10.04,88.62 -10.60,89.40 -11.38,89.96 -12.38,90.29 -13.60,90.40 -13.60,109.60 -11.38,110.04 -10.60,110.60 -10.04,111.38 -9.71,112.38">
        <request index="0"  response="000000000000" foes="000000000000" cont="0"/>
        <request index="1"  response="000000000000" foes="110100010000" cont="0"/>
        <request index="2"  response="000010000000" foes="100010110000" cont="0"/>
        <request index="3"  response="000000000000" foes="000000000000" cont="0"/>
        <request index="4"  response="000010000110" foes="100010000110" cont="0"/>
        <request index="5"  response="010110000100" foes="010110000100" cont="0"/>
        <request index="6"  response="000000000000" foes="000000000000" cont="0"/>
        <request index="7"  response="000000000000" foes="010000110100" cont="0"/>
        <request index="8"  response="000000000010" foes="110000100010" cont="0"/>
        <request index="9"  response="000000000000" foes="000000000000" cont="0"/>
        <request index="10" response="000110000010" foes="000110100010" cont="0"/>
        <request index="11" response="000100010110" foes="000100010110" cont="0"/>
    </junction>
    <junction id="01" type="traffic_light" x="200.00" y="100.00" incLanes="05to01_0 05to01_1 05to01_2 02to01_0 02to01_1 02to01_2 0bto01_0 0bto01_1 0bto01_2 00to01_0 00to01_1 00to01_2" intLanes=":01_0_0 :01_1_0 :01_2_0 :01_3_0 :01_4_0 :01_5_0 :01_6_0 :01_7_0 :01_8_0 :01_9_0 :01_10_0 :01_11_0" shape="190.40,113.60 209.60,113.60 210.04,111.38 210.60,110.60 211.38,110.04 212.38,109.71 213.60,109.60 213.60,90.40 211.38,89.96 210.60,89.40 210.04,88.62 209.71,87.62 209.60,86.40 190.40,86.40 189.96,88.62 189.40,89.40 188.62,89.96 187.62,90.29 186.40,90.40 186.40,109.60 188.62,110.04 189.40,110.60 189.96,111.38 190.29,112.38">
        <request index="0"  response="000000000000" foes="000000000000" cont="0"/>
        <request index="1"  response="000000000000" foes="110100010000" cont="0"/>
        <request index="2"  response="000010000000" foes="100010110000" cont="0"/>
        <request index="3"  response="000000000000" foes="000000000000" cont="0"/>
        <request index="4"  response="000010000110" foes="100010000110" cont="0"/>
        <request index="5"  response="010110000100" foes="010110000100" cont="0"/>
        <request index="6"  response="000000000000" foes="000000000000" cont="0"/>
        <request index="7"  response="000000000000" foes="010000110100" cont="0"/>
        <request index="8"  response="000000000010" foes="110000100010" cont="0"/>
        <request index="9"  response="000000000000" foes="000000000000" cont="0"/>
        <request index="10" response="000110000010" foes="000110100010" cont="0"/>
        <request index="11" response="000100010110" foes="000100010110" cont="0"/>
    </junction>
    <junction id="02" type="traffic_light" x="400.00" y="100.00" incLanes="06to02_0 06to02_1 06to02_2 03to02_0 03to02_1 03to02_2 0ato02_0 0ato02_1 0ato02_2 01to02_0 01to02_1 01to02_2" intLanes=":02_0_0 :02_1_0 :02_2_0 :02_3_0 :02_4_0 :02_5_0 :02_6_0 :02_7_0 :02_8_0 :02_9_0 :02_10_0 :02_11_0" shape="390.40,113.60 409.60,113.60 410.04,111.38 410.60,110.60 411.38,110.04 412.38,109.71 413.60,109.60 413.60,90.40 411.38,89.96 410.60,89.40 410.04,88.62 409.71,87.62 409.60,86.40 390.40,86.40 389.96,88.62 389.40,89.40 388.62,89.96 387.62,90.29 386.40,90.40 386.40,109.60 388.62,110.04 389.40,110.60 389.96,111.38 390.29,112.38">
        <request index="0"  response="000000000000" foes="000000000000" cont="0"/>
        <request index="1"  response="000000000000" foes="110100010000" cont="0"/>
        <request index="2"  response="000010000000" foes="100010110000" cont="0"/>
        <request index="3"  response="000000000000" foes="000000000000" cont="0"/>
        <request index="4"  response="000010000110" foes="100010000110" cont="0"/>
        <request index="5"  response="010110000100" foes="010110000100" cont="0"/>
        <request index="6"  response="000000000000" foes="000000000000" cont="0"/>
        <request index="7"  response="000000000000" foes="010000110100" cont="0"/>
        <request index="8"  response="000000000010" foes="110000100010" cont="0"/>
        <request index="9"  response="000000000000" foes="000000000000" cont="0"/>
        <request index="10" response="000110000010" foes="000110100010" cont="0"/>
        <request index="11" response="000100010110" foes="000100010110" cont="0"/>
    </junction>
    <junction id="03" type="traffic_light" x="600.00" y="100.00" incLanes="07to03_0 07to03_1 07to03_2 08to03_0 08to03_1 08to03_2 09to03_0 09to03_1 09to03_2 02to03_0 02to03_1 02to03_2" intLanes=":03_0_0 :03_1_0 :03_2_0 :03_3_0 :03_4_0 :03_5_0 :03_6_0 :03_7_0 :03_8_0 :03_9_0 :03_10_0 :03_11_0" shape="590.40,113.60 609.60,113.60 610.04,111.38 610.60,110.60 611.38,110.04 612.38,109.71 613.60,109.60 613.60,90.40 611.38,89.96 610.60,89.40 610.04,88.62 609.71,87.62 609.60,86.40 590.40,86.40 589.96,88.62 589.40,89.40 588.62,89.96 587.62,90.29 586.40,90.40 586.40,109.60 588.62,110.04 589.40,110.60 589.96,111.38 590.29,112.38">
        <request index="0"  response="000000000000" foes="000000000000" cont="0"/>
        <request index="1"  response="000000000000" foes="110100010000" cont="0"/>
        <request index="2"  response="000010000000" foes="100010110000" cont="0"/>
        <request index="3"  response="000000000000" foes="000000000000" cont="0"/>
        <request index="4"  response="000010000110" foes="100010000110" cont="0"/>
        <request index="5"  response="010110000100" foes="010110000100" cont="0"/>
        <request index="6"  response="000000000000" foes="000000000000" cont="0"/>
        <request index="7"  response="000000000000" foes="010000110100" cont="0"/>
        <request index="8"  response="000000000010" foes="110000100010" cont="0"/>
        <request index="9"  response="000000000000" foes="000000000000" cont="0"/>
        <request index="10" response="000110000010" foes="000110100010" cont="0"/>
        <request index="11" response="000100010110" foes="000100010110" cont="0"/>
    </junction>
    <junction id="04" type="dead_end" x="0.00" y="300.00" incLanes="00to04_0 00to04_1 00to04_2" intLanes="" shape="0.00,300.00 9.60,300.00 0.00,300.00"/>
    <junction id="05" type="dead_end" x="200.00" y="300.00" incLanes="01to05_0 01to05_1 01to05_2" intLanes="" shape="200.00,300.00 209.60,300.00 200.00,300.00"/>
    <junction id="06" type="dead_end" x="400.00" y="300.00" incLanes="02to06_0 02to06_1 02to06_2" intLanes="" shape="400.00,300.00 409.60,300.00 400.00,300.00"/>
    <junction id="07" type="dead_end" x="600.00" y="300.00" incLanes="03to07_0 03to07_1 03to07_2" intLanes="" shape="600.00,300.00 609.60,300.00 600.00,300.00"/>
    <junction id="08" type="dead_end" x="800.00" y="100.00" incLanes="03to08_0 03to08_1 03to08_2" intLanes="" shape="800.00,100.00 800.00,90.40 800.00,100.00"/>
    <junction id="09" type="dead_end" x="600.00" y="-100.00" incLanes="03to09_0 03to09_1 03to09_2" intLanes="" shape="600.00,-100.00 590.40,-100.00 600.00,-100.00"/>
    <junction id="0a" type="dead_end" x="400.00" y="-100.00" incLanes="02to0a_0 02to0a_1 02to0a_2" intLanes="" shape="400.00,-100.00 390.40,-100.00 400.00,-100.00"/>
    <junction id="0b" type="dead_end" x="200.00" y="-100.00" incLanes="01to0b_0 01to0b_1 01to0b_2" intLanes="" shape="200.00,-100.00 190.40,-100.00 200.00,-100.00"/>
    <junction id="0c" type="dead_end" x="0.00" y="-100.00" incLanes="00to0c_0 00to0c_1 00to0c_2" intLanes="" shape="0.00,-100.00 -9.60,-100.00 0.00,-100.00"/>
    <junction id="0d" type="dead_end" x="-200.00" y="100.00" incLanes="00to0d_0 00to0d_1 00to0d_2" intLanes="" shape="-200.00,100.00 -200.00,109.60 -200.00,100.00"/>

    <connection from="00to01" to="01to0b" fromLane="0" toLane="0" via=":01_9_0" tl="01" linkIndex="9" dir="r" state="O"/>
    <connection from="00to01" to="01to02" fromLane="1" toLane="1" via=":01_10_0" tl="01" linkIndex="10" dir="s" state="o"/>
    <connection from="00to01" to="01to05" fromLane="2" toLane="2" via=":01_11_0" tl="01" linkIndex="11" dir="l" state="o"/>
    <connection from="01to00" to="00to04" fromLane="0" toLane="0" via=":00_3_0" tl="00" linkIndex="3" dir="r" state="O"/>