<routes>
	<vType id="typeCar" accel="0.8" decel="4.5" sigma="0.5" length="5" minGap="2.5" maxSpeed="16.67" guiShape="passenger"/>

	<!-- flow from time 0 to 200 -->
	<flow id="04to05_1" color="red" begin="0" end="200" probability="0.3" from="04to00" to="01to05"/>
	<flow id="04to06_1" color="red" begin="0" end="200" probability="0.3" from="04to00" to="01to06"/>
	<flow id="04to07_1" color="red" begin="0" end="200" probability="0.3" from="04to00" to="03to07"/>
	<flow id="04to08_1" color="red" begin="0" end="200" probability="0.3" from="04to00" to="03to08"/>
	<flow id="04to09_1" color="red" begin="0" end="200" probability="0.3" from="04to00" to="02to09"/>
	<flow id="04to0a_1" color="red" begin="0" end="200" probability="0.3" from="04to00" to="02to0a"/>
	<flow id="04to0b_1" color="red" begin="0" end="200" probability="0.3" from="04to00" to="00to0b"/>

	<flow id="05to04_1" color="red" begin="0" end="200" probability="0.3" from="05to01" to="00to04"/>
	<flow id="05to06_1" color="red" begin="0" end="200" probability="0.3" from="05to01" to="01to06"/>
	<flow id="05to07_1" color="red" begin="0" end="200" probability="0.3" from="05to01" to="03to07"/>
	<flow id="05to08_1" color="red" begin="0" end="200" probability="0.3" from="05to01" to="03to08"/>
	<flow id="05to09_1" color="red" begin="0" end="200" probability="0.3" from="05to01" to="02to09"/>
	<flow id="05to0a_1" color="red" begin="0" end="200" probability="0.3" from="05to01" to="02to0a"/>
	<flow id="05to0b_1" color="red" begin="0" end="200" probability="0.3" from="05to01" to="00to0b"/>

	<flow id="0ato05_1" color="orange" begin="0" end="200" probability="0.1" from="0ato02" to="01to05"/>
	<flow id="0ato06_1" color="orange" begin="0" end="200" probability="0.1" from="0ato02" to="01to06"/>
	<flow id="0ato07_1" color="orange" begin="0" end="200" probability="0.1" from="0ato02" to="03to07"/>
	<flow id="0ato08_1" color="orange" begin="0" end="200" probability="0.1" from="0ato02" to="03to08"/>
	<flow id="0ato09_1" color="orange" begin="0" end="200" probability="0.1" from="0ato02" to="02to09"/>
	<flow id="0ato04_1" color="orange" begin="0" end="200" probability="0.1" from="0ato02" to="00to04"/>
	<flow id="0ato0b_1" color="orange" begin="0" end="200" probability="0.1" from="0ato02" to="00to0b"/>

	<flow id="0bto05_1" color="orange" begin="0" end="200" probability="0.1" from="0bto00" to="01to05"/>
	<flow id="0bto06_1" color="orange" begin="0" end="200" probability="0.1" from="0bto00" to="01to06"/>
	<flow id="0bto07_1" color="orange" begin="0" end="200" probability="0.1" from="0bto00" to="03to07"/>
	<flow id="0bto08_1" color="orange" begin="0" end="200" probability="0.1" from="0bto00" to="03to08"/>
	<flow id="0bto09_1" color="orange" begin="0" end="200" probability="0.1" from="0bto00" to="02to09"/>
	<flow id="0bto0a_1" color="orange" begin="0" end="200" probability="0.1" from="0bto00" to="02to0a"/>
	<flow id="0bto04_1" color="orange" begin="0" end="200" probability="0.1" from="0bto00" to="00to04"/>



	<!-- flow from time 201 to 400 -->
	<flow id="04to05_2" color="red" begin="201" end="400" probability="0.5" from="04to00" to="01to05"/>
	<flow id="04to06_2" color="red" begin="201" end="400" probability="0.5" from="04to00" to="01to06"/>
	<flow id="04to07_2" color="red" begin="201" end="400" probability="0.5" from="04to00" to="03to07"/>
	<flow id="04to08_2" color="red" begin="201" end="400" probability="0.5" from="04to00" to="03to08"/>
	<flow id="04to09_2" color="red" begin="201" end="400" probability="0.5" from="04to00" to="02to09"/>
	<flow id="04to0a_2" color="red" begin="201" end="400" probability="0.5" from="04to00" to="02to0a"/>
	<flow id="04to0b_2" color="red" begin="201" end="400" probability="0.5" from="04to00" to="00to0b"/>

	<flow id="05to04_2" color="red" begin="201" end="400" probability="0.5" from="05to01" to="00to04"/>
	<flow id="05to06_2" color="red" begin="201" end="400" probability="0.5" from="05to01" to="01to06"/>
	<flow id="05to07_2" color="red" begin="201" end="400" probability="0.5" from="05to01" to="03to07"/>
	<flow id="05to08_2" color="red" begin="201" end="400" probability="0.5" from="05to01" to="03to08"/>
	<flow id="05to09_2" color="red" begin="201" end="400" probability="0.5" from="05to01" to="02to09"/>
	<flow id="05to0a_2" color="red" begin="201" end="400" probability="0.5" from="05to01" to="02to0a"/>
	<flow id="05to0b_2" color="red" begin="201" end="400" probability="0.5" from="05to01" to="00to0b"/>

	<flow id="0ato05_2" color="orange" begin="201" end="400" probability="0.2" from="0ato02" to="01to05"/>
	<flow id="0ato06_2" color="orange" begin="201" end="400" probability="0.2" from="0ato02" to="01to06"/>
	<flow id="0ato07_2" color="orange" begin="201" end="400" probability="0.2" from="0ato02" to="03to07"/>
	<flow id="0ato08_2" color="orange" begin="201" end="400" probability="0.2" from="0ato02" to="03to08"/>
	<flow id="0ato09_2" color="orange" begin="201" end="400" probability="0.2" from="0ato02" to="02to09"/>
	<flow id="0ato04_2" color="orange" begin="201" end="400" probability="0.2" from="0ato02" to="00to04"/>
	<flow id="0ato0b_2" color="orange" begin="201" end="400" probability="0.2" from="0ato02" to="00to0b"/>

	<flow id="0bto05_2" color="orange" begin="201" end="400" probability="0.2" from="0bto00" to="01to05"/>
	<flow id="0bto06_2" color="orange" begin="201" end="400" probability="0.2" from="0bto00" to="01to06"/>
	<flow id="0bto07_2" color="orange" begin="201" end="400" probability="0.2" from="0bto00" to="03to07"/>
	<flow id="0bto08_2" color="orange" begin="201" end="400" probability="0.2" from="0bto00" to="03to08"/>
	<flow id="0bto09_2" color="orange" begin="201" end="400" probability="0.2" from="0bto00" to="02to09"/>
	<flow id="0bto0a_2" color="orange" begin="201" end="400" probability="0.2" from="0bto00" to="02to0a"/>
	<flow id="0bto04_2" color="orange" begin="201" end="400" probability="0.2" from="0bto00" to="00to04"/>



	<!-- flow from time 401 to 600 -->
	<flow id="04to05_3" color="red" begin="401" end="600" probability="0.6" from="04to00" to="01to05"/>
	<flow id="04to06_3" color="red" begin="401" end="600" probability="0.6" from="04to00" to="01to06"/>
	<flow id="04to07_3" color="red" begin="401" end="600" probability="0.6" from="04to00" to="03to07"/>
	<flow id="04to08_3" color="red" begin="401" end="600" probability="0.6" from="04to00" to="03to08"/>
	<flow id="04to09_3" color="red" begin="401" end="600" probability="0.6" from="04to00" to="02to09"/>
	<flow id="04to0a_3" color="red" begin="401" end="600" probability="0.6" from="04to00" to="02to0a"/>
	<flow id="04to0b_3" color="red" begin="401" end="600" probability="0.6" from="04to00" to="00to0b"/>

	<flow id="05to04_3" color="red" begin="401" end="600" probability="0.6" from="05to01" to="00to04"/>
	<flow id="05to06_3" color="red" begin="401" end="600" probability="0.6" from="05to01" to="01to06"/>
	<flow id="05to07_3" color="red" begin="401" end="600" probability="0.6" from="05to01" to="03to07"/>
	<flow id="05to08_3" color="red" begin="401" end="600" probability="0.6" from="05to01" to="03to08"/>
	<flow id="05to09_3" color="red" begin="401" end="600" probability="0.6" from="05to01" to="02to09"/>
	<flow id="05to0a_3" color="red" begin="401" end="600" probability="0.6" from="05to01" to="02to0a"/>
	<flow id="05to0b_3" color="red" begin="401" end="600" probability="0.6" from="05to01" to="00to0b"/>

	<flow id="0ato05_3" color="orange" begin="401" end="600" probability="0.3" from="0ato02" to="01to05"/>
	<flow id="0ato06_3" color="orange" begin="401" end="600" probability="0.3" from="0ato02" to="01to06"/>
	<flow id="0ato07_3" color="orange" begin="401" end="600" probability="0.3" from="0ato02" to="03to07"/>
	<flow id="0ato08_3" color="orange" begin="401" end="600" probability="0.3" from="0ato02" to="03to08"/>
	<flow id="0ato09_3" color="orange" begin="401" end="600" probability="0.3" from="0ato02" to="02to09"/>
	<flow id="0ato04_3" color="orange" begin="401" end="600" probability="0.3" from="0ato02" to="00to04"/>
	<flow id="0ato0b_3" color="orange" begin="401" end="600" probability="0.3" from="0ato02" to="00to0b"/>

	<flow id="0bto05_3" color="orange" begin="401" end="600" probability="0.3" from="0bto00" to="01to05"/>
	<flow id="0bto06_3" color="orange" begin="401" end="600" probability="0.3" from="0bto00" to="01to06"/>
	<flow id="0bto07_3" color="orange" begin="401" end="600" probability="0.3" from="0bto00" to="03to07"/>
	<flow id="0bto08_3" color="orange" begin="401" end="600" probability="0.3" from="0bto00" to="03to08"/>
	<flow id="0bto09_3" color="orange" begin="401" end="600" probability="0.3" from="0bto00" to="02to09"/>
	<flow id="0bto0a_3" color="orange" begin="401" end="600" probability="0.3" from="0bto00" to="02to0a"/>
	<flow id="0bto04_3" color="orange" begin="401" end="600" probability="0.3" from="0bto00" to="00to04"/>



	<!-- flow from time 601 to 800 -->
	<flow id="04to05_4" color="red" begin="601" end="800" probability="0.45" from="04to00" to="01to05"/>
	<flow id="04to06_4" color="red" begin="601" end="800" probability="0.45" from="04to00" to="01to06"/>
	<flow id="04to07_4" color="red" begin="601" end="800" probability="0.45" from="04to00" to="03to07"/>
	<flow id="04to08_4" color="red" begin="601" end="800" probability="0.45" from="04to00" to="03to08"/>
	<flow id="04to09_4" color="red" begin="601" end="800" probability="0.45" from="04to00" to="02to09"/>
	<flow id="04to0a_4" color="red" begin="601" end="800" probability="0.45" from="04to00" to="02to0a"/>
	<flow id="04to0b_4" color="red" begin="601" end="800" probability="0.45" from="04to00" to="00to0b"/>

	<flow id="05to04_4" color="red" begin="601" end="800" probability="0.45" from="05to01" to="00to04"/>
	<flow id="05to06_4" color="red" begin="601" end="800" probability="0.45" from="05to01" to="01to06"/>
	<flow id="05to07_4" color="red" begin="601" end="800" probability="0.45" from="05to01" to="03to07"/>
	<flow id="05to08_4" color="red" begin="601" end="800" probability="0.45" from="05to01" to="03to08"/>
	<flow id="05to09_4" color="red" begin="601" end="800" probability="0.45" from="05to01" to="02to09"/>
	<flow id="05to0a_4" color="red" begin="601" end="800" probability="0.45" from="05to01" to="02to0a"/>
	<flow id="05to0b_4" color="red" begin="601" end="800" probability="0.45" from="05to01" to="00to0b"/>

	<flow id="08to05_4" color="blue" begin="601" end="800" probability="0.1" from="08to03" to="01to05"/>
	<flow id="08to06_4" color="blue" begin="601" end="800" probability="0.1" from="08to03" to="01to06"/>
	<flow id="08to07_4" color="blue" begin="601" end="800" probability="0.1" from="08to03" to="03to07"/>
	<flow id="08to04_4" color="blue" begin="601" end="800" probability="0.1" from="08to03" to="00to04"/>
	<flow id="08to09_4" color="blue" begin="601" end="800" probability="0.1" from="08to03" to="02to09"/>
	<flow id="08to0a_4" color="blue" begin="601" end="800" probability="0.1" from="08to03" to="02to0a"/>
	<flow id="08to0b_4" color="blue" begin="601" end="800" probability="0.1" from="08to03" to="00to0b"/>

	<flow id="09to05_4" color="blue" begin="601" end="800" probability="0.1" from="09to02" to="01to05"/>
	<flow id="09to06_4" color="blue" begin="601" end="800" probability="0.1" from="09to02" to="01to06"/>
	<flow id="09to07_4" color="blue" begin="601" end="800" probability="0.1" from="09to02" to="03to07"/>
	<flow id="09to08_4" color="blue" begin="601" end="800" probability="0.1" from="09to02" to="03to08"/>
	<flow id="09to04_4" color="blue" begin="601" end="800" probability="0.1" from="09to02" to="00to04"/>
	<flow id="09to0a_4" color="blue" begin="601" end="800" probability="0.1" from="09to02" to="02to0a"/>
	<flow id="09to0b_4" color="blue" begin="601" end="800" probability="0.1" from="09to02" to="00to0b"/>

	<flow id="0ato05_4" color="orange" begin="601" end="800" probability="0.25" from="0ato02" to="01to05"/>
	<flow id="0ato06_4" color="orange" begin="601" end="800" probability="0.25" from="0ato02" to="01to06"/>
	<flow id="0ato07_4" color="orange" begin="601" end="800" probability="0.25" from="0ato02" to="03to07"/>
	<flow id="0ato08_4" color="orange" begin="601" end="800" probability="0.25" from="0ato02" to="03to08"/>
	<flow id="0ato09_4" color="orange" begin="601" end="800" probability="0.25" from="0ato02" to="02to09"/>
	<flow id="0ato04_4" color="orange" begin="601" end="800" probability="0.25" from="0ato02" to="00to04"/>
	<flow id="0ato0b_4" color="orange" begin="601" end="800" probability="0.25" from="0ato02" to="00to0b"/>

	<flow id="0bto05_4" color="orange" begin="601" end="800" probability="0.25" from="0bto00" to="01to05"/>
	<flow id="0bto06_4" color="orange" begin="601" end="800" probability="0.25" from="0bto00" to="01to06"/>
	<flow id="0bto07_4" color="orange" begin="601" end="800" probability="0.25" from="0bto00" to="03to07"/>
	<flow id="0bto08_4" color="orange" begin="601" end="800" probability="0.25" from="0bto00" to="03to08"/>
	<flow id="0bto09_4" color="orange" begin="601" end="800" probability="0.25" from="0bto00" to="02to09"/>
	<flow id="0bto0a_4" color="orange" begin="601" end="800" probability="0.25" from="0bto00" to="02to0a"/>
	<flow id="0bto04_4" color="orange" begin="601" end="800" probability="0.25" from="0bto00" to="00to04"/>

	<flow id="06to04_4" color="green" begin="601" end="800" probability="0.05" from="06to01" to="00to04"/>
	<flow id="06to05_4" color="green" begin="601" end="800" probability="0.05" from="06to01" to="01to05"/>
	<flow id="06to07_4" color="green" begin="601" end="800" probability="0.05" from="06to01" to="03to07"/>
	<flow id="06to08_4" color="green" begin="601" end="800" probability="0.05" from="06to01" to="03to08"/>
	<flow id="06to09_4" color="green" begin="601" end="800" probability="0.05" from="06to01" to="02to09"/>
	<flow id="06to0a_4" color="green" begin="601" end="800" probability="0.05" from="06to01" to="02to0a"/>
	<flow id="06to0b_4" color="green" begin="601" end="800" probability="0.05" from="06to01" to="00to0b"/>

	<flow id="07to05_4" color="green" begin="601" end="800" probability="0.05" from="07to03" to="01to05"/>
	<flow id="07to06_4" color="green" begin="601" end="800" probability="0.05" from="07to03" to="01to06"/>
	<flow id="07to04_4" color="green" begin="601" end="800" probability="0.05" from="07to03" to="00to04"/>
	<flow id="07to08_4" color="green" begin="601" end="800" probability="0.05" from="07to03" to="03to08"/>
	<flow id="07to09_4" color="green" begin="601" end="800" probability="0.05" from="07to03" to="02to09"/>
	<flow id="07to0a_4" color="green" begin="601" end="800" probability="0.05" from="07to03" to="02to0a"/>
	<flow id="07to0b_4" color="green" begin="601" end="800" probability="0.05" from="07to03" to="00to0b"/>



	<!-- flow from time 801 to 1000 -->
	<flow id="04to05_5" color="red" begin="801" end="1000" probability="0.4" from="04to00" to="01to05"/>
	<flow id="04to06_5" color="red" begin="801" end="1000" probability="0.4" from="04to00" to="01to06"/>
	<flow id="04to07_5" color="red" begin="801" end="1000" probability="0.4" from="04to00" to="03to07"/>
	<flow id="04to08_5" color="red" begin="801" end="1000" probability="0.4" from="04to00" to="03to08"/>
	<flow id="04to09_5" color="red" begin="801" end="1000" probability="0.4" from="04to00" to="02to09"/>
	<flow id="04to0a_5" color="red" begin="801" end="1000" probability="0.4" from="04to00" to="02to0a"/>
	<flow id="04to0b_5" color="red" begin="801" end="1000" probability="0.4" from="04to00" to="00to0b"/>

	<flow id="05to04_5" color="red" begin="801" end="1000" probability="0.4" from="05to01" to="00to04"/>
	<flow id="05to06_5" color="red" begin="801" end="1000" probability="0.4" from="05to01" to="01to06"/>
	<flow id="05to07_5" color="red" begin="801" end="1000" probability="0.4" from="05to01" to="03to07"/>
	<flow id="05to08_5" color="red" begin="801" end="1000" probability="0.4" from="05to01" to="03to08"/>
	<flow id="05to09_5" color="red" begin="801" end="1000" probability="0.4" from="05to01" to="02to09"/>
	<flow id="05to0a_5" color="red" begin="801" end="1000" probability="0.4" from="05to01" to="02to0a"/>
	<flow id="05to0b_5" color="red" begin="801" end="1000" probability="0.4" from="05to01" to="00to0b"/>

	<flow id="08to05_5" color="blue" begin="801" end="1000" probability="0.3" from="08to03" to="01to05"/>
	<flow id="08to06_5" color="blue" begin="801" end="1000" probability="0.3" from="08to03" to="01to06"/>
	<flow id="08to07_5" color="blue" begin="801" end="1000" probability="0.3" from="08to03" to="03to07"/>
	<flow id="08to04_5" color="blue" begin="801" end="1000" probability="0.3" from="08to03" to="00to04"/>
	<flow id="08to09_5" color="blue" begin="801" end="1000" probability="0.3" from="08to03" to="02to09"/>
	<flow id="08to0a_5" color="blue" begin="801" end="1000" probability="0.3" from="08to03" to="02to0a"/>
	<flow id="08to0b_5" color="blue" begin="801" end="1000" probability="0.3" from="08to03" to="00to0b"/>

	<flow id="09to05_5" color="blue" begin="801" end="1000" probability="0.3" from="09to02" to="01to05"/>
	<flow id="09to06_5" color="blue" begin="801" end="1000" probability="0.3" from="09to02" to="01to06"/>
	<flow id="09to07_5" color="blue" begin="801" end="1000" probability="0.3" from="09to02" to="03to07"/>
	<flow id="09to08_5" color="blue" begin="801" end="1000" probability="0.3" from="09to02" to="03to08"/>
	<flow id="09to04_5" color="blue" begin="801" end="1000" probability="0.3" from="09to02" to="00to04"/>
	<flow id="09to0a_5" color="blue" begin="801" end="1000" probability="0.3" from="09to02" to="02to0a"/>
	<flow id="09to0b_5" color="blue" begin="801" end="1000" probability="0.3" from="09to02" to="00to0b"/>

	<flow id="0ato05_5" color="orange" begin="801" end="1000" probability="0.2" from="0ato02" to="01to05"/>
	<flow id="0ato06_5" color="orange" begin="801" end="1000" probability="0.2" from="0ato02" to="01to06"/>
	<flow id="0ato07_5" color="orange" begin="801" end="1000" probability="0.2" from="0ato02" to="03to07"/>
	<flow id="0ato08_5" color="orange" begin="801" end="1000" probability="0.2" from="0ato02" to="03to08"/>
	<flow id="0ato09_5" color="orange" begin="801" end="1000" probability="0.2" from="0ato02" to="02to09"/>
	<flow id="0ato04_5" color="orange" begin="801" end="1000" probability="0.2" from="0ato02" to="00to04"/>
	<flow id="0ato0b_5" color="orange" begin="801" end="1000" probability="0.2" from="0ato02" to="00to0b"/>

	<flow id="0bto05_5" color="orange" begin="801" end="1000" probability="0.2" from="0bto00" to="01to05"/>
	<flow id="0bto06_5" color="orange" begin="801" end="1000" probability="0.2" from="0bto00" to="01to06"/>
	<flow id="0bto07_5" color="orange" begin="801" end="1000" probability="0.2" from="0bto00" to="03to07"/>
	<flow id="0bto08_5" color="orange" begin="801" end="1000" probability="0.2" from="0bto00" to="03to08"/>
	<flow id="0bto09_5" color="orange" begin="801" end="1000" probability="0.2" from="0bto00" to="02to09"/>
	<flow id="0bto0a_5" color="orange" begin="801" end="1000" probability="0.2" from="0bto00" to="02to0a"/>
	<flow id="0bto04_5" color="orange" begin="801" end="1000" probability="0.2" from="0bto00" to="00to04"/>

	<flow id="06to04_5" color="green" begin="801" end="1000" probability="0.1" from="06to01" to="00to04"/>
	<flow id="06to05_5" color="green" begin="801" end="1000" probability="0.1" from="06to01" to="01to05"/>
	<flow id="06to07_5" color="green" begin="801" end="1000" probability="0.1" from="06to01" to="03to07"/>
	<flow id="06to08_5" color="green" begin="801" end="1000" probability="0.1" from="06to01" to="03to08"/>
	<flow id="06to09_5" color="green" begin="801" end="1000" probability="0.1" from="06to01" to="02to09"/>
	<flow id="06to0a_5" color="green" begin="801" end="1000" probability="0.1" from="06to01" to="02to0a"/>
	<flow id="06to0b_5" color="green" begin="801" end="1000" probability="0.1" from="06to01" to="00to0b"/>

	<flow id="07to05_5" color="green" begin="801" end="1000" probability="0.1" from="07to03" to="01to05"/>
	<flow id="07to06_5" color="green" begin="801" end="1000" probability="0.1" from="07to03" to="01to06"/>
	<flow id="07to04_5" color="green" begin="801" end="1000" probability="0.1" from="07to03" to="00to04"/>
	<flow id="07to08_5" color="green" begin="801" end="1000" probability="0.1" from="07to03" to="03to08"/>
	<flow id="07to09_5" color="green" begin="801" end="1000" probability="0.1" from="07to03" to="02to09"/>
	<flow id="07to0a_5" color="green" begin="801" end="1000" probability="0.1" from="07to03" to="02to0a"/>
	<flow id="07to0b_5" color="green" begin="801" end="1000" probability="0.1" from="07to03" to="00to0b"/>



	<!-- flow from time 1001 to 1200 -->
	<flow id="04to05_6" color="red" begin="1001" end="1200" probability="0.1" from="04to00" to="01to05"/>
	<flow id="04to06_6" color="red" begin="1001" end="1200" probability="0.1" from="04to00" to="01to06"/>
	<flow id="04to07_6" color="red" begin="1001" end="1200" probability="0.1" from="04to00" to="03to07"/>
	<flow id="04to08_6" color="red" begin="1001" end="1200" probability="0.1" from="04to00" to="03to08"/>
	<flow id="04to09_6" color="red" begin="1001" end="1200" probability="0.1" from="04to00" to="02to09"/>
	<flow id="04to0a_6" color="red" begin="1001" end="1200" probability="0.1" from="04to00" to="02to0a"/>
	<flow id="04to0b_6" color="red" begin="1001" end="1200" probability="0.1" from="04to00" to="00to0b"/>

	<flow id="05to04_6" color="red" begin="1001" end="1200" probability="0.1" from="05to01" to="00to04"/>
	<flow id="05to06_6" color="red" begin="1001" end="1200" probability="0.1" from="05to01" to="01to06"/>
	<flow id="05to07_6" color="red" begin="1001" end="1200" probability="0.1" from="05to01" to="03to07"/>
	<flow id="05to08_6" color="red" begin="1001" end="1200" probability="0.1" from="05to01" to="03to08"/>
	<flow id="05to09_6" color="red" begin="1001" end="1200" probability="0.1" from="05to01" to="02to09"/>
	<flow id="05to0a_6" color="red" begin="1001" end="1200" probability="0.1" from="05to01" to="02to0a"/>
	<flow id="05to0b_6" color="red" begin="1001" end="1200" probability="0.1" from="05to01" to="00to0b"/>

	<flow id="08to05_6" color="blue" begin="1001" end="1200" probability="0.4" from="08to03" to="01to05"/>
	<flow id="08to06_6" color="blue" begin="1001" end="1200" probability="0.4" from="08to03" to="01to06"/>
	<flow id="08to07_6" color="blue" begin="1001" end="1200" probability="0.4" from="08to03" to="03to07"/>
	<flow id="08to04_6" color="blue" begin="1001" end="1200" probability="0.4" from="08to03" to="00to04"/>
	<flow id="08to09_6" color="blue" begin="1001" end="1200" probability="0.4" from="08to03" to="02to09"/>
	<flow id="08to0a_6" color="blue" begin="1001" end="1200" probability="0.4" from="08to03" to="02to0a"/>
	<flow id="08to0b_6" color="blue" begin="1001" end="1200" probability="0.4" from="08to03" to="00to0b"/>

	<flow id="09to05_6" color="blue" begin="1001" end="1200" probability="0.4" from="09to02" to="01to05"/>
	<flow id="09to06_6" color="blue" begin="1001" end="1200" probability="0.4" from="09to02" to="01to06"/>
	<flow id="09to07_6" color="blue" begin="1001" end="1200" probability="0.4" from="09to02" to="03to07"/>
	<flow id="09to08_6" color="blue" begin="1001" end="1200" probability="0.4" from="09to02" to="03to08"/>
	<flow id="09to04_6" color="blue" begin="1001" end="1200" probability="0.4" from="09to02" to="00to04"/>
	<flow id="09to0a_6" color="blue" begin="1001" end="1200" probability="0.4" from="09to02" to="02to0a"/>
	<flow id="09to0b_6" color="blue" begin="1001" end="1200" probability="0.4" from="09to02" to="00to0b"/>

	<flow id="0ato05_6" color="orange" begin="1001" end="1200" probability="0.1" from="0ato02" to="01to05"/>
	<flow id="0ato06_6" color="orange" begin="1001" end="1200" probability="0.1" from="0ato02" to="01to06"/>
	<flow id="0ato07_6" color="orange" begin="1001" end="1200" probability="0.1" from="0ato02" to="03to07"/>
	<flow id="0ato08_6" color="orange" begin="1001" end="1200" probability="0.1" from="0ato02" to="03to08"/>
	<flow id="0ato09_6" color="orange" begin="1001" end="1200" probability="0.1" from="0ato02" to="02to09"/>
	<flow id="0ato04_6" color="orange" begin="1001" end="1200" probability="0.1" from="0ato02" to="00to04"/>
	<flow id="0ato0b_6" color="orange" begin="1001" end="1200" probability="0.1" from="0ato02" to="00to0b"/>

	<flow id="0bto05_6" color="orange" begin="1001" end="1200" probability="0.1" from="0bto00" to="01to05"/>
	<flow id="0bto06_6" color="orange" begin="1001" end="1200" probability="0.1" from="0bto00" to="01to06"/>
	<flow id="0bto07_6" color="orange" begin="1001" end="1200" probability="0.1" from="0bto00" to="03to07"/>
	<flow id="0bto08_6" color="orange" begin="1001" end="1200" probability="0.1" from="0bto00" to="03to08"/>
	<flow id="0bto09_6" color="orange" begin="1001" end="1200" probability="0.1" from="0bto00" to="02to09"/>
	<flow id="0bto0a_6" color="orange" begin="1001" end="1200" probability="0.1" from="0bto00" to="02to0a"/>
	<flow id="0bto04_6" color="orange" begin="1001" end="1200" probability="0.1" from="0bto00" to="00to04"/>

	<flow id="06to04_6" color="green" begin="1001" end="1200" probability="0.2" from="06to01" to="00to04"/>
	<flow id="06to05_6" color="green" begin="1001" end="1200" probability="0.2" from="06to01" to="01to05"/>
	<flow id="06to07_6" color="green" begin="1001" end="1200" probability="0.2" from="06to01" to="03to07"/>
	<flow id="06to08_6" color="green" begin="1001" end="1200" probability="0.2" from="06to01" to="03to08"/>
	<flow id="06to09_6" color="green" begin="1001" end="1200" probability="0.2" from="06to01" to="02to09"/>
	<flow id="06to0a_6" color="green" begin="1001" end="1200" probability="0.2" from="06to01" to="02to0a"/>
	<flow id="06to0b_6" color="green" begin="1001" end="1200" probability="0.2" from="06to01" to="00to0b"/>

	<flow id="07to05_6" color="green" begin="1001" end="1200" probability="0.2" from="07to03" to="01to05"/>
	<flow id="07to06_6" color="green" begin="1001" end="1200" probability="0.2" from="07to03" to="01to06"/>
	<flow id="07to04_6" color="green" begin="1001" end="1200" probability="0.2" from="07to03" to="00to04"/>
	<flow id="07to08_6" color="green" begin="1001" end="1200" probability="0.2" from="07to03" to="03to08"/>
	<flow id="07to09_6" color="green" begin="1001" end="1200" probability="0.2" from="07to03" to="02to09"/>
	<flow id="07to0a_6" color="green" begin="1001" end="1200" probability="0.2" from="07to03" to="02to0a"/>
	<flow id="07to0b_6" color="green" begin="1001" end="1200" probability="0.2" from="07to03" to="00to0b"/>



	<!-- flow from time 1201 to 1400 -->
	<flow id="08to05_7" color="blue" begin="1201" end="1400" probability="0.5" from="08to03" to="01to05"/>
	<flow id="08to06_7" color="blue" begin="1201" end="1400" probability="0.5" from="08to03" to="01to06"/>
	<flow id="08to07_7" color="blue" begin="1201" end="1400" probability="0.5" from="08to03" to="03to07"/>
	<flow id="08to04_7" color="blue" begin="1201" end="1400" probability="0.5" from="08to03" to="00to04"/>
	<flow id="08to09_7" color="blue" begin="1201" end="1400" probability="0.5" from="08to03" to="02to09"/>
	<flow id="08to0a_7" color="blue" begin="1201" end="1400" probability="0.5" from="08to03" to="02to0a"/>
	<flow id="08to0b_7" color="blue" begin="1201" end="1400" probability="0.5" from="08to03" to="00to0b"/>

	<flow id="09to05_7" color="blue" begin="1201" end="1400" probability="0.5" from="09to02" to="01to05"/>
	<flow id="09to06_7" color="blue" begin="1201" end="1400" probability="0.5" from="09to02" to="01to06"/>
	<flow id="09to07_7" color="blue" begin="1201" end="1400" probability="0.5" from="09to02" to="03to07"/>
	<flow id="09to08_7" color="blue" begin="1201" end="1400" probability="0.5" from="09to02" to="03to08"/>
	<flow id="09to04_7" color="blue" begin="1201" end="1400" probability="0.5" from="09to02" to="00to04"/>
	<flow id="09to0a_7" color="blue" begin="1201" end="1400" probability="0.5" from="09to02" to="02to0a"/>
	<flow id="09to0b_7" color="blue" begin="1201" end="1400" probability="0.5" from="09to02" to="00to0b"/>

	<flow id="06to04_7" color="green" begin="1201" end="1400" probability="0.25" from="06to01" to="00to04"/>
	<flow id="06to05_7" color="green" begin="1201" end="1400" probability="0.25" from="06to01" to="01to05"/>
	<flow id="06to07_7" color="green" begin="1201" end="1400" probability="0.25" from="06to01" to="03to07"/>
	<flow id="06to08_7" color="green" begin="1201" end="1400" probability="0.25" from="06to01" to="03to08"/>
	<flow id="06to09_7" color="green" begin="1201" end="1400" probability="0.25" from="06to01" to="02to09"/>
	<flow id="06to0a_7" color="green" begin="1201" end="1400" probability="0.25" from="06to01" to="02to0a"/>
	<flow id="06to0b_7" color="green" begin="1201" end="1400" probability="0.25" from="06to01" to="00to0b"/>

	<flow id="07to05_7" color="green" begin="1201" end="1400" probability="0.25" from="07to03" to="01to05"/>
	<flow id="07to06_7" color="green" begin="1201" end="1400" probability="0.25" from="07to03" to="01to06"/>
	<flow id="07to04_7" color="green" begin="1201" end="1400" probability="0.25" from="07to03" to="00to04"/>
	<flow id="07to08_7" color="green" begin="1201" end="1400" probability="0.25" from="07to03" to="03to08"/>
	<flow id="07to09_7" color="green" begin="1201" end="1400" probability="0.25" from="07to03" to="02to09"/>
	<flow id="07to0a_7" color="green" begin="1201" end="1400" probability="0.25" from="07to03" to="02to0a"/>
	<flow id="07to0b_7" color="green" begin="1201" end="1400" probability="0.25" from="07to03" to="00to0b"/>



	<!-- flow from time 1401 to 1600 -->
	<flow id="08to05_8" color="blue" begin="1401" end="1600" probability="0.4" from="08to03" to="01to05"/>
	<flow id="08to06_8" color="blue" begin="1401" end="1600" probability="0.4" from="08to03" to="01to06"/>