<routes>
	<vType id="typeCar" accel="0.8" decel="4.5" sigma="0.5" length="5" minGap="2.5" maxSpeed="16.67" guiShape="passenger"/>

	<flow id="04to05" color="red" begin="0" end="10000" probability="0.5" from="04to00" to="01to05"/>
	<flow id="04to06" color="red" begin="0" end="10000" probability="0.5" from="04to00" to="01to06"/>
	<flow id="04to07" color="red" begin="0" end="10000" probability="0.5" from="04to00" to="03to07"/>
	<flow id="04to08" color="red" begin="0" end="10000" probability="0.5" from="04to00" to="03to08"/>
	<flow id="04to09" color="red" begin="0" end="10000" probability="0.5" from="04to00" to="02to09"/>
	<flow id="04to0a" color="red" begin="0" end="10000" probability="0.5" from="04to00" to="02to0a"/>
	<flow id="04to0b" color="red" begin="0" end="10000" probability="0.5" from="04to00" to="00to0b"/>

	<flow id="05to04" color="red" begin="0" end="10000" probability="0.5" from="05to01" to="00to04"/>
	<flow id="05to06" color="red" begin="0" end="10000" probability="0.5" from="05to01" to="01to06"/>
	<flow id="05to07" color="red" begin="0" end="10000" probability="0.5" from="05to01" to="03to07"/>
	<flow id="05to08" color="red" begin="0" end="10000" probability="0.5" from="05to01" to="03to08"/>
	<flow id="05to09" color="red" begin="0" end="10000" probability="0.5" from="05to01" to="02to09"/>
	<flow id="05to0a" color="red" begin="0" end="10000" probability="0.5" from="05to01" to="02to0a"/>
	<flow id="05to0b" color="red" begin="0" end="10000" probability="0.5" from="05to01" to="00to0b"/>

	<flow id="06to04" color="green" begin="0" end="10000" probability="0.5" from="06to01" to="00to04"/>
	<flow id="06to05" color="green" begin="0" end="10000" probability="0.5" from="06to01" to="01to05"/>
	<flow id="06to07" color="green" begin="0" end="10000" probability="0.5" from="06to01" to="03to07"/>
	<flow id="06to08" color="green" begin="0" end="10000" probability="0.5" from="06to01" to="03to08"/>
	<flow id="06to09" color="green" begin="0" end="10000" probability="0.5" from="06to01" to="02to09"/>
	<flow id="06to0a" color="green" begin="0" end="10000" probability="0.5" from="06to01" to="02to0a"/>
	<flow id="06to0b" color="green" begin="0" end="10000" probability="0.5" from="06to01" to="00to0b"/>

	<flow id="07to05" color="green" begin="0" end="10000" probability="0.5" from="07to03" to="01to05"/>
	<flow id="07to06" color="green" begin="0" end="10000" probability="0.5" from="07to03" to="01to06"/>
	<flow id="07to04" color="green" begin="0" end="10000" probability="0.5" from="07to03" to="00to04"/>
	<flow id="07to08" color="green" begin="0" end="10000" probability="0.5" from="07to03" to="03to08"/>
	<flow id="07to09" color="green" begin="0" end="10000" probability="0.5" from="07to03" to="02to09"/>
	<flow id="07to0a" color="green" begin="0" end="10000" probability="0.5" from="07to03" to="02to0a"/>
	<flow id="07to0b" color="green" begin="0" end="10000" probability="0.5" from="07to03" to="00to0b"/>

	<flow id="08to05" color="blue" begin="0" end="10000" probability="0.5" from="08to03" to="01to05"/>
	<flow id="08to06" color="blue" begin="0" end="10000" probability="0.5" from="08to03" to="01to06"/>
	<flow id="08to07" color="blue" begin="0" end="10000" probability="0.5" from="08to03" to="03to07"/>
	<flow id="08to04" color="blue" begin="0" end="10000" probability="0.5" from="08to03" to="00to04"/>
	<flow id="08to09" color="blue" begin="0" end="10000" probability="0.5" from="08to03" to="02to09"/>
	<flow id="08to0a" color="blue" begin="0" end="10000" probability="0.5" from="08to03" to="02to0a"/>
	<flow id="08to0b" color="blue" begin="0" end="10000" probability="0.5" from="08to03" to="00to0b"/>

	<flow id="09to05" color="blue" begin="0" end="10000" probability="0.5" from="09to02" to="01to05"/>
	<flow id="09to06" color="blue" begin="0" end="10000" probability="0.5" from="09to02" to="01to06"/>
	<flow id="09to07" color="blue" begin="0" end="10000" probability="0.5" from="09to02" to="03to07"/>
	<flow id="09to08" color="blue" begin="0" end="10000" probability="0.5" from="09to02" to="03to08"/>
	<flow id="09to04" color="blue" begin="0" end="10000" probability="0.5" from="09to02" to="00to04"/>
	<flow id="09to0a" color="blue" begin="0" end="10000" probability="0.5" from="09to02" to="02to0a"/>
	<flow id="09to0b" color="blue" begin="0" end="10000" probability="0.5" from="09to02" to="00to0b"/>

	<flow id="0ato05" color="orange" begin="0" end="10000" probability="0.5" from="0ato02" to="01to05"/>
	<flow id="0ato06" color="orange" begin="0" end="10000" probability="0.5" from="0ato02" to="01to06"/>
	<flow id="0ato07" color="orange" begin="0" end="10000" probability="0.5" from="0ato02" to="03to07"/>
	<flow id="0ato08" color="orange" begin="0" end="10000" probability="0.5" from="0ato02" to="03to08"/>
	<flow id="0ato09" color="orange" begin="0" end="10000" probability="0.5" from="0ato02" to="02to09"/>
	<flow id="0ato04" color="orange" begin="0" end="10000" probability="0.5" from="0ato02" to="00to04"/>
	<flow id="0ato0b" color="orange" begin="0" end="10000" probability="0.5" from="0ato02" to="00to0b"/>

	<flow id="0bto05" color="orange" begin="0" end="10000" probability="0.5" from="0bto00" to="01to05"/>
	<flow id="0bto06" color="orange" begin="0" end="10000" probability="0.5" from="0bto00" to="01to06"/>
	<flow id="0bto07" color="orange" begin="0" end="10000" probability="0.5" from="0bto00" to="03to07"/>
	<flow id="0bto08" color="orange" begin="0" end="10000" probability="0.5" from="0bto00" to="03to08"/>
	<flow id="0bto09" color="orange" begin="0" end="10000" probability="0.5" from="0bto00" to="02to09"/>
	<flow id="0bto0a" color="orange" begin="0" end="10000" probability="0.5" from="0bto00" to="02to0a"/>
	<flow id="0bto04" color="orange" begin="0" end="10000" probability="0.5" from="0bto00" to="00to04"/>
</routes>
