<?xml version="1.0" encoding="UTF-8"?>

<!-- generated on 2022-12-05 02:27:19 by Eclipse SUMO netedit Version 1.15.0
<configuration xmlns:xsi="http://www.w3.org/2001/XMLSchema-instance" xsi:noNamespaceSchemaLocation="http://sumo.dlr.de/xsd/netconvertConfiguration.xsd">

    <input>
        <sumo-net-file value="/home/CAMPUS/180205312/SUMO_multi_junction_control/SingleJunction/SingleJunction.net.xml"/>
    </input>

    <output>
        <output-file value="/home/CAMPUS/180205312/SUMO_multi_junction_control/SingleJunction/SingleJunction.net.xml"/>
    </output>

    <processing>
        <geometry.min-radius.fix.railways value="false"/>
        <geometry.max-grade.fix value="false"/>
        <offset.disable-normalization value="true"/>
        <lefthand value="0"/>
    </processing>

    <junctions>
        <no-turnarounds value="true"/>
        <junctions.corner-detail value="5"/>
        <junctions.limit-turn-speed value="5.50"/>
        <rectangular-lane-cut value="0"/>
    </junctions>

    <pedestrian>
        <walkingareas value="0"/>
    </pedestrian>

    <netedit>
        <TLSPrograms-output value="/home/CAMPUS/180205312/SUMO_multi_junction_control/SingleJunction/SingleJunction.add.xml"/>
    </netedit>

</configuration>
-->

<net version="1.9" junctionCornerDetail="5" limitTurnSpeed="5.50" xmlns:xsi="http://www.w3.org/2001/XMLSchema-instance" xsi:noNamespaceSchemaLocation="http://sumo.dlr.de/xsd/net_file.xsd">

    <location netOffset="0.00,0.00" convBoundary="600.00,-700.00,1000.00,-300.00" origBoundary="-10000000000.00,-10000000000.00,10000000000.00,10000000000.00" projParameter="!"/>

    <edge id=":00_0" function="internal">
        <lane id=":00_0_0" index="0" speed="6.51" length="9.03" shape="792.00,-486.40 791.65,-488.85 790.60,-490.60 788.85,-491.65 786.40,-492.00"/>
    </edge>
    <edge id=":00_1" function="internal">
        <lane id=":00_1_0" index="0" speed="13.89" length="27.20" shape="795.20,-486.40 795.20,-513.60"/>
    </edge>
    <edge id=":00_2" function="internal">
        <lane id=":00_2_0" index="0" speed="10.36" length="24.51" shape="798.40,-486.40 799.35,-493.05 802.20,-497.80 806.95,-500.65 813.60,-501.60"/>
    </edge>
    <edge id=":00_3" function="internal">
        <lane id=":00_3_0" index="0" speed="6.51" length="9.03" shape="813.60,-492.00 811.15,-491.65 809.40,-490.60 808.35,-488.85 808.00,-486.40"/>
    </edge>
    <edge id=":00_4" function="internal">
        <lane id=":00_4_0" index="0" speed="13.89" length="27.20" shape="813.60,-495.20 786.40,-495.20"/>
    </edge>
    <edge id=":00_5" function="internal">
        <lane id=":00_5_0" index="0" speed="10.36" length="24.51" shape="813.60,-498.40 806.95,-499.35 802.20,-502.20 799.35,-506.95 798.40,-513.60"/>
    </edge>
    <edge id=":00_6" function="internal">
        <lane id=":00_6_0" index="0" speed="6.51" length="9.03" shape="808.00,-513.60 808.35,-511.15 809.40,-509.40 811.15,-508.35 813.60,-508.00"/>
    </edge>
    <edge id=":00_7" function="internal">
        <lane id=":00_7_0" index="0" speed="13.89" length="27.20" shape="804.80,-513.60 804.80,-486.40"/>
    </edge>
    <edge id=":00_8" function="internal">
        <lane id=":00_8_0" index="0" speed="10.36" length="24.51" shape="801.60,-513.60 800.65,-506.95 797.80,-502.20 793.05,-499.35 786.40,-498.40"/>
    </edge>
    <edge id=":00_9" function="internal">
        <lane id=":00_9_0" index="0" speed="6.51" length="9.03" shape="786.40,-508.00 788.85,-508.35 790.60,-509.40 791.65,-511.15 792.00,-513.60"/>
    </edge>
    <edge id=":00_10" function="internal">
        <lane id=":00_10_0" index="0" speed="13.89" length="27.20" shape="786.40,-504.80 813.60,-504.80"/>
    </edge>
    <edge id=":00_11" function="internal">
        <lane id=":00_11_0" index="0" speed="10.36" length="24.51" shape="786.40,-501.60 793.05,-500.65 797.80,-497.80 800.65,-493.05 801.60,-486.40"/>
    </edge>

    <edge id="00to01" from="00" to="01" priority="-1">
        <lane id="00to01_0" index="0" speed="13.89" length="186.40" shape="808.00,-486.40 808.00,-300.00"/>
        <lane id="00to01_1" index="1" speed="13.89" length="186.40" shape="804.80,-486.40 804.80,-300.00"/>
        <lane id="00to01_2" index="2" speed="13.89" length="186.40" shape="801.60,-486.40 801.60,-300.00"/>
    </edge>
    <edge id="00to02" from="00" to="02" priority="-1">
        <lane id="00to02_0" index="0" speed="13.89" length="186.40" shape="786.40,-492.00 600.00,-492.00"/>
        <lane id="00to02_1" index="1" speed="13.89" length="186.40" shape="786.40,-495.20 600.00,-495.20"/>
        <lane id="00to02_2" index="2" speed="13.89" length="186.40" shape="786.40,-498.40 600.00,-498.40"/>
    </edge>
    <edge id="00to03" from="00" to="03" priority="-1">
        <lane id="00to03_0" index="0" speed="13.89" length="186.40" shape="792.00,-513.60 792.00,-700.00"/>
        <lane id="00to03_1" index="1" speed="13.89" length="186.40" shape="795.20,-513.60 795.20,-700.00"/>
        <lane id="00to03_2" index="2" speed="13.89" length="186.40" shape="798.40,-513.60 798.40,-700.00"/>
    </edge>
    <edge id="00to04" from="00" to="04" priority="-1">
        <lane id="00to04_0" index="0" speed="13.89" length="186.40" shape="813.60,-508.00 1000.00,-508.00"/>
        <lane id="00to04_1" index="1" speed="13.89" length="186.40" shape="813.60,-504.80 1000.00,-504.80"/>
        <lane id="00to04_2" index="2" speed="13.89" length="186.40" shape="813.60,-501.60 1000.00,-501.60"/>
    </edge>
    <edge id="01to00" from="01" to="00" priority="-1">
        <lane id="01to00_0" index="0" speed="13.89" length="186.40" shape="792.00,-300.00 792.00,-486.40"/>
        <lane id="01to00_1" index="1" speed="13.89" length="186.40" shape="795.20,-300.00 795.20,-486.40"/>
        <lane id="01to00_2" index="2" speed="13.89" length="186.40" shape="798.40,-300.00 798.40,-486.40"/>
    </edge>
    <edge id="02to00" from="02" to="00" priority="-1">
        <lane id="02to00_0" index="0" speed="13.89" length="186.40" shape="600.00,-508.00 786.40,-508.00"/>
        <lane id="02to00_1" index="1" speed="13.89" length="186.40" shape="600.00,-504.80 786.40,-504.80"/>
        <lane id="02to00_2" index="2" speed="13.89" length="186.40" shape="600.00,-501.60 786.40,-501.60"/>
    </edge>
    <edge id="03to00" from="03" to="00" priority="-1">
        <lane id="03to00_0" index="0" speed="13.89" length="186.40" shape="808.00,-700.00 808.00,-513.60"/>
        <lane id="03to00_1" index="1" speed="13.89" length="186.40" shape="804.80,-700.00 804.80,-513.60"/>
        <lane id="03to00_2" index="2" speed="13.89" length="186.40" shape="801.60,-700.00 801.60,-513.60"/>
    </edge>
    <edge id="04to00" from="04" to="00" priority="-1">
        <lane id="04to00_0" index="0" speed="13.89" length="186.40" shape="1000.00,-492.00 813.60,-492.00"/>
        <lane id="04to00_1" index="1" speed="13.89" length="186.40" shape="1000.00,-495.20 813.60,-495.20"/>
        <lane id="04to00_2" index="2" speed="13.89" length="186.40" shape="1000.00,-498.40 813.60,-498.40"/>
    </edge>

    <tlLogic id="00" type="static" programID="0" offset="0">
        <phase duration="30" state="gGGgrrgrrgrr"/>
        <phase duration="30" state="grrgGGgrrgrr"/>
        <phase duration="30" state="grrgrrgGGgrr"/>
        <phase duration="30" state="grrgrrgrrgGG"/>
    </tlLogic>

    <junction id="00" type="traffic_light" x="800.00" y="-500.00" incLanes="01to00_0 01to00_1 01to00_2 04to00_0 04to00_1 04to00_2 03to00_0 03to00_1 03to00_2 02to00_0 02to00_1 02to00_2" intLanes=":00_0_0 :00_1_0 :00_2_0 :00_3_0 :00_4_0 :00_5_0 :00_6_0 :00_7_0 :00_8_0 :00_9_0 :00_10_0 :00_11_0" shape="790.40,-486.40 809.60,-486.40 810.04,-488.62 810.60,-489.40 811.38,-489.96 812.38,-490.29 813.60,-490.40 813.60,-509.60 811.38,-510.04 810.60,-510.60 810.04,-511.38 809.71,-512.38 809.60,-513.60 790.40,-513.60 789.96,-511.38 789.40,-510.60 788.62,-510.04 787.62,-509.71 786.40,-509.60 786.40,-490.40 788.62,-489.96 789.40,-489.40 789.96,-488.62 790.29,-487.62">
        <request index="0"  response="000000000000" foes="000000000000" cont="0"/>
        <request index="1"  response="000000000000" foes="110100010000" cont="0"/>
        <request index="2"  response="000010000000" foes="100010110000" cont="0"/>
        <request index="3"  response="000000000000" foes="000000000000" cont="0"/>
        <request index="4"  response="000010000110" foes="100010000110" cont="0"/>
        <request index="5"  response="010110000100" foes="010110000100" cont="0"/>
        <request index="6"  response="000000000000" foes="000000000000" cont="0"/>
        <request index="7"  response="000000000000" foes="010000110100" cont="0"/>
        <request index="8"  response="000000000010" foes="110000100010" cont="0"/>
        <request index="9"  response="000000000000" foes="000000000000" cont="0"/>
        <request index="10" response="000110000010" foes="000110100010" cont="0"/>
        <request index="11" response="000100010110" foes="000100010110" cont="0"/>
    </junction>
    <junction id="01" type="dead_end" x="800.00" y="-300.00" incLanes="00to01_0 00to01_1 00to01_2" intLanes="" shape="800.00,-300.00 809.60,-300.00 800.00,-300.00"/>
    <junction id="02" type="dead_end" x="600.00" y="-500.00" incLanes="00to02_0 00to02_1 00to02_2" intLanes="" shape="600.00,-500.00 600.00,-490.40 600.00,-500.00"/>
    <junction id="03" type="dead_end" x="800.00" y="-700.00" incLanes="00to03_0 00to03_1 00to03_2" intLanes="" shape="800.00,-700.00 790.40,-700.00 800.00,-700.00"/>
    <junction id="04" type="dead_end" x="1000.00" y="-500.00" incLanes="00to04_0 00to04_1 00to04_2" intLanes="" shape="1000.00,-500.00 1000.00,-509.60 1000.00,-500.00"/>

    <connection from="01to00" to="00to02" fromLane="0" toLane="0" via=":00_0_0" tl="00" linkIndex="0" dir="r" state="O"/>
    <connection from="01to00" to="00to03" fromLane="1" toLane="1" via=":00_1_0" tl="00" linkIndex="1" dir="s" state="O"/>
    <connection from="01to00" to="00to04" fromLane="2" toLane="2" via=":00_2_0" tl="00" linkIndex="2" dir="l" state="o"/>
    <connection from="02to00" to="00to03" fromLane="0" toLane="0" via=":00_9_0" tl="00" linkIndex="9" dir="r" state="O"/>
    <connection from="02to00" to="00to04" fromLane="1" toLane="1" via=":00_10_0" tl="00" linkIndex="10" dir="s" state="o"/>
    <connection from="02to00" to="00to01" fromLane="2" toLane="2" via=":00_11_0" tl="00" linkIndex="11" dir="l" state="o"/>
    <connection from="03to00" to="00to04" fromLane="0" toLane="0" via=":00_6_0" tl="00" linkIndex="6" dir="r" state="O"/>
    <connection from="03to00" to="00to01" fromLane="1" toLane="1" via=":00_7_0" tl="00" linkIndex="7" dir="s" state="O"/>
    <connection from="03to00" to="00to02" fromLane="2" toLane="2" via=":00_8_0" tl="00" linkIndex="8" dir="l" state="o"/>
    <connection from="04to00" to="00to01" fromLane="0" toLane="0" via=":00_3_0" tl="00" linkIndex="3" dir="r" state="O"/>
    <connection from="04to00" to="00to02" fromLane="1" toLane="1" via=":00_4_0" tl="00" linkIndex="4" dir="s" state="o"/>
    <connection from="04to00" to="00to03" fromLane="2" toLane="2" via=":00_5_0" tl="00" linkIndex="5" dir="l" state="o"/>

    <connection from=":00_0" to="00to02" fromLane="0" toLane="0" dir="r" state="M"/>
    <connection from=":00_1" to="00to03" fromLane="0" toLane="1" dir="s" state="M"/>
    <connection from=":00_2" to="00to04" fromLane="0" toLane="2" dir="l" state="M"/>
    <connection from=":00_3" to="00to01" fromLane="0" toLane="0" dir="r" state="M"/>
    <connection from=":00_4" to="00to02" fromLane="0" toLane="1" dir="s" state="M"/>
    <connection from=":00_5" to="00to03" fromLane="0" toLane="2" dir="l" state="M"/>
    <connection from=":00_6" to="00to04" fromLane="0" toLane="0" dir="r" state="M"/>
    <connection from=":00_7" to="00to01" fromLane="0" toLane="1" dir="s" state="M"/>
    <connection from=":00_8" to="00to02" fromLane="0" toLane="2" dir="l" state="M"/>
    <connection from=":00_9" to="00to03" fromLane="0" toLane="0" dir="r" state="M"/>
    <connection from=":00_10" to="00to04" fromLane="0" toLane="1" dir="s" state="M"/>
    <connection from=":00_11" to="00to01" fromLane="0" toLane="2" dir="l" state="M"/>

</net>
