<routes>
	<vType id="typeCar" accel="0.8" decel="4.5" sigma="0.5" length="5" minGap="2.5" maxSpeed="16.67" guiShape="passenger"/>

	<flow id="01to02" begin="0" end="10000" probability="0.08" from="01to00" to="00to02"/>
	<flow id="01to03" begin="0" end="10000" probability="0.08" from="01to00" to="00to03"/>
	<flow id="01to04" begin="0" end="10000" probability="0.08" from="01to00" to="00to04"/>

	<flow id="02to01" begin="0" end="10000" probability="0.08" from="02to00" to="00to01"/>
	<flow id="02to03" begin="0" end="10000" probability="0.08" from="02to00" to="00to03"/>
	<flow id="02to04" begin="0" end="10000" probability="0.08" from="02to00" to="00to04"/>

	<flow id="03to01" begin="0" end="10000" probability="0.08" from="03to00" to="00to01"/>
	<flow id="03to02" begin="0" end="10000" probability="0.08" from="03to00" to="00to02"/>
	<flow id="03to04" begin="0" end="10000" probability="0.08" from="03to00" to="00to04"/>

	<flow id="04to01" begin="0" end="10000" probability="0.08" from="04to00" to="00to01"/>
	<flow id="04to02" begin="0" end="10000" probability="0.08" from="04to00" to="00to02"/>
	<flow id="04to03" begin="0" end="10000" probability="0.08" from="04to00" to="00to03"/>

</routes>
