<?xml version="1.0" encoding="UTF-8"?>

<!-- generated on 2023-01-13 15:52:02 by Eclipse SUMO netconvert Version 1.15.0
<configuration xmlns:xsi="http://www.w3.org/2001/XMLSchema-instance" xsi:noNamespaceSchemaLocation="http://sumo.dlr.de/xsd/netconvertConfiguration.xsd">

    <input>
        <type-files value="${SUMO_HOME}/data/typemap/osmNetconvert.typ.xml"/>
        <osm-files value="osm_bbox.osm.xml.gz"/>
    </input>

    <output>
        <output-file value="osm.net.xml.gz"/>
        <output.street-names value="true"/>
        <output.original-names value="true"/>
    </output>

    <projection>
        <proj.utm value="true"/>
    </projection>

    <processing>
        <geometry.remove value="true"/>
        <roundabouts.guess value="true"/>
    </processing>

    <tls_building>
        <tls.discard-simple value="true"/>
        <tls.join value="true"/>
        <tls.guess-signals value="true"/>
        <tls.default-type value="actuated"/>
    </tls_building>

    <ramp_guessing>
        <ramps.guess value="true"/>
    </ramp_guessing>

    <junctions>
        <junctions.join value="true"/>
        <junctions.corner-detail value="5"/>
    </junctions>

    <report>
        <verbose value="true"/>
    </report>

</configuration>
-->

<net version="1.9" junctionCornerDetail="5" limitTurnSpeed="5.50" xmlns:xsi="http://www.w3.org/2001/XMLSchema-instance" xsi:noNamespaceSchemaLocation="http://sumo.dlr.de/xsd/net_file.xsd">

    <location netOffset="-492018.17,-6209826.08" convBoundary="0.00,0.00,1249.92,1180.74" origBoundary="92.871894,56.033603,92.891955,56.044211" projParameter="+proj=utm +zone=46 +ellps=WGS84 +datum=WGS84 +units=m +no_defs"/>

    <type id="highway.bridleway" priority="1" numLanes="1" speed="2.78" allow="pedestrian" oneway="1" width="2.00"/>
    <type id="highway.bus_guideway" priority="1" numLanes="1" speed="27.78" allow="bus" oneway="1"/>
    <type id="highway.cycleway" priority="1" numLanes="1" speed="5.56" allow="bicycle" oneway="0" width="1.00"/>
    <type id="highway.footway" priority="1" numLanes="1" speed="2.78" allow="pedestrian" oneway="1" width="2.00"/>
    <type id="highway.ford" priority="1" numLanes="1" speed="2.78" allow="army" oneway="0"/>
    <type id="highway.living_street" priority="2" numLanes="1" speed="2.78" disallow="tram rail_urban rail rail_electric rail_fast ship" oneway="0"/>
    <type id="highway.motorway" priority="14" numLanes="2" speed="39.44" allow="private emergency authority army vip passenger hov taxi bus coach delivery truck trailer motorcycle evehicle custom1 custom2" oneway="1"/>
    <type id="highway.motorway_link" priority="9" numLanes="1" speed="22.22" allow="private emergency authority army vip passenger hov taxi bus coach delivery truck trailer motorcycle evehicle custom1 custom2" oneway="1"/>
    <type id="highway.path" priority="1" numLanes="1" speed="5.56" allow="pedestrian bicycle" oneway="0" width="2.00"/>
    <type id="highway.pedestrian" priority="1" numLanes="1" speed="2.78" allow="pedestrian" oneway="1" width="2.00"/>
    <type id="highway.primary" priority="12" numLanes="2" speed="27.78" disallow="tram rail_urban rail rail_electric rail_fast ship" oneway="0"/>
    <type id="highway.primary_link" priority="7" numLanes="1" speed="22.22" disallow="tram rail_urban rail rail_electric rail_fast ship" oneway="0"/>
    <type id="highway.raceway" priority="15" numLanes="2" speed="83.33" allow="vip" oneway="0"/>
    <type id="highway.residential" priority="3" numLanes="1" speed="13.89" disallow="tram rail_urban rail rail_electric rail_fast ship" oneway="0"/>
    <type id="highway.secondary" priority="11" numLanes="1" speed="27.78" disallow="tram rail_urban rail rail_electric rail_fast ship" oneway="0"/>
    <type id="highway.secondary_link" priority="6" numLanes="1" speed="22.22" disallow="tram rail_urban rail rail_electric rail_fast ship" oneway="0"/>
    <type id="highway.service" priority="1" numLanes="1" speed="5.56" allow="pedestrian delivery bicycle" oneway="0"/>
    <type id="highway.stairs" priority="1" numLanes="1" speed="1.39" allow="pedestrian" oneway="1" width="2.00"/>
    <type id="highway.step" priority="1" numLanes="1" speed="1.39" allow="pedestrian" oneway="1" width="2.00"/>
    <type id="highway.steps" priority="1" numLanes="1" speed="1.39" allow="pedestrian" oneway="1" width="2.00"/>
    <type id="highway.tertiary" priority="10" numLanes="1" speed="22.22" disallow="tram rail_urban rail rail_electric rail_fast ship" oneway="0"/>
    <type id="highway.tertiary_link" priority="5" numLanes="1" speed="22.22" disallow="tram rail_urban rail rail_electric rail_fast ship" oneway="0"/>
    <type id="highway.track" priority="1" numLanes="1" speed="5.56" allow="pedestrian motorcycle moped bicycle" oneway="0"/>
    <type id="highway.trunk" priority="13" numLanes="2" speed="27.78" disallow="pedestrian bicycle tram rail_urban rail rail_electric rail_fast ship" oneway="0"/>
    <type id="highway.trunk_link" priority="8" numLanes="1" speed="22.22" disallow="pedestrian bicycle tram rail_urban rail rail_electric rail_fast ship" oneway="0"/>
    <type id="highway.unclassified" priority="4" numLanes="1" speed="13.89" disallow="tram rail_urban rail rail_electric rail_fast ship" oneway="0"/>
    <type id="highway.unsurfaced" priority="1" numLanes="1" speed="8.33" disallow="tram rail_urban rail rail_electric rail_fast ship" oneway="0"/>
    <type id="railway.highspeed" priority="21" numLanes="1" speed="69.44" allow="rail_fast" oneway="1"/>
    <type id="railway.light_rail" priority="19" numLanes="1" speed="27.78" allow="rail_urban" oneway="1"/>
    <type id="railway.preserved" priority="16" numLanes="1" speed="27.78" allow="rail" oneway="1"/>
    <type id="railway.rail" priority="20" numLanes="1" speed="44.44" allow="rail" oneway="1"/>
    <type id="railway.subway" priority="18" numLanes="1" speed="27.78" allow="rail_urban" oneway="1"/>
    <type id="railway.tram" priority="17" numLanes="1" speed="13.89" allow="tram" oneway="1"/>

    <edge id=":1372125096_0" function="internal">
        <lane id=":1372125096_0_0" index="0" disallow="tram rail_urban rail rail_electric rail_fast ship" speed="3.65" length="4.67" shape="441.70,1180.83 440.83,1181.98 440.01,1182.34 439.23,1181.89 438.50,1180.65"/>
    </edge>
    <edge id=":2152758870_0" function="internal">
        <lane id=":2152758870_0_0" index="0" allow="pedestrian delivery bicycle" speed="3.65" length="4.67" shape="165.71,275.76 167.14,275.57 167.97,275.91 168.19,276.77 167.82,278.16"/>
    </edge>
    <edge id=":2152758903_0" function="internal">
        <lane id=":2152758903_0_0" index="0" allow="pedestrian delivery bicycle" speed="3.65" length="4.67" shape="389.47,358.67 390.31,357.50 391.13,357.13 391.91,357.56 392.67,358.79"/>
    </edge>
    <edge id=":2733144626_0" function="internal">
        <lane id=":2733144626_0_0" index="0" disallow="tram rail_urban rail rail_electric rail_fast ship" speed="3.65" length="4.67" shape="773.30,531.77 774.46,532.62 774.82,533.44 774.39,534.22 773.15,534.97"/>
    </edge>
    <edge id=":3188131765_0" function="internal">
        <lane id=":3188131765_0_0" index="0" allow="pedestrian delivery bicycle" speed="5.56" length="9.51" shape="390.84,408.42 390.39,417.91"/>
    </edge>
    <edge id=":3188131765_1" function="internal">
        <lane id=":3188131765_1_0" index="0" allow="pedestrian delivery bicycle" speed="5.56" length="10.22" shape="390.84,408.42 390.34,411.15 389.07,413.07 387.04,414.18 384.23,414.49"/>
    </edge>
    <edge id=":3188131765_2" function="internal">
        <lane id=":3188131765_2_0" index="0" allow="pedestrian delivery bicycle" speed="3.65" length="4.67" shape="390.84,408.42 390.00,409.59 389.18,409.96 388.40,409.53 387.64,408.30"/>
    </edge>
    <edge id=":3188131765_3" function="internal">
        <lane id=":3188131765_3_0" index="0" allow="pedestrian delivery bicycle" speed="5.09" length="5.08" shape="384.33,411.29 385.74,411.14 386.76,410.59 387.39,409.65 387.64,408.30"/>
    </edge>
    <edge id=":3188131765_4" function="internal">
        <lane id=":3188131765_4_0" index="0" allow="pedestrian delivery bicycle" speed="5.56" length="10.30" shape="384.33,411.29 387.12,411.78 389.06,413.05 390.15,415.09 390.39,417.91"/>
    </edge>
    <edge id=":3188131765_5" function="internal">
        <lane id=":3188131765_5_0" index="0" allow="pedestrian delivery bicycle" speed="3.65" length="4.67" shape="384.33,411.29 385.50,412.13 385.88,412.94 385.46,413.73 384.23,414.49"/>
    </edge>
    <edge id=":3188131765_6" function="internal">
        <lane id=":3188131765_6_0" index="0" allow="pedestrian delivery bicycle" speed="5.01" length="5.03" shape="387.19,417.73 387.08,416.35 386.54,415.35 385.60,414.73 384.23,414.49"/>
    </edge>
    <edge id=":3188131765_7" function="internal">
        <lane id=":3188131765_7_0" index="0" allow="pedestrian delivery bicycle" speed="5.56" length="9.44" shape="387.19,417.73 387.64,408.30"/>
    </edge>
    <edge id=":3188131765_8" function="internal">
        <lane id=":3188131765_8_0" index="0" allow="pedestrian delivery bicycle" speed="3.65" length="4.67" shape="387.19,417.73 388.06,416.58 388.88,416.22 389.66,416.67 390.39,417.91"/>
    </edge>
    <edge id=":3188131766_0" function="internal">
        <lane id=":3188131766_0_0" index="0" allow="pedestrian delivery bicycle" speed="5.06" length="5.02" shape="357.44,413.68 356.07,413.83 355.07,414.38 354.45,415.32 354.20,416.67"/>
    </edge>
    <edge id=":3188131766_1" function="internal">
        <lane id=":3188131766_1_0" index="0" allow="pedestrian delivery bicycle" speed="5.56" length="10.18" shape="357.44,413.68 354.69,413.20 352.76,411.95 351.64,409.94 351.34,407.17"/>
    </edge>
    <edge id=":3188131766_2" function="internal">
        <lane id=":3188131766_2_0" index="0" allow="pedestrian delivery bicycle" speed="3.65" length="4.67" shape="357.44,413.68 356.26,412.84 355.89,412.03 356.31,411.24 357.54,410.48"/>
    </edge>
    <edge id=":3188131766_3" function="internal">
        <lane id=":3188131766_3_0" index="0" allow="pedestrian delivery bicycle" speed="5.04" length="5.00" shape="354.54,407.28 354.69,408.64 355.23,409.63 356.19,410.24 357.54,410.48"/>
    </edge>
    <edge id=":3188131766_4" function="internal">
        <lane id=":3188131766_4_0" index="0" allow="pedestrian delivery bicycle" speed="5.56" length="9.39" shape="354.54,407.28 354.20,416.67"/>
    </edge>
    <edge id=":3188131766_5" function="internal">
        <lane id=":3188131766_5_0" index="0" allow="pedestrian delivery bicycle" speed="3.65" length="4.67" shape="354.54,407.28 353.70,408.45 352.88,408.82 352.10,408.40 351.34,407.17"/>
    </edge>
    <edge id=":3188131766_6" function="internal">
        <lane id=":3188131766_6_0" index="0" allow="pedestrian delivery bicycle" speed="5.56" length="9.38" shape="351.00,416.55 351.34,407.17"/>
    </edge>
    <edge id=":3188131766_7" function="internal">
        <lane id=":3188131766_7_0" index="0" allow="pedestrian delivery bicycle" speed="5.56" length="10.15" shape="351.00,416.55 351.50,413.82 352.76,411.90 354.77,410.78 357.54,410.48"/>
    </edge>
    <edge id=":3188131766_8" function="internal">
        <lane id=":3188131766_8_0" index="0" allow="pedestrian delivery bicycle" speed="3.65" length="4.67" shape="351.00,416.55 351.85,415.38 352.66,415.01 353.45,415.44 354.20,416.67"/>
    </edge>
    <edge id=":3188131771_0" function="internal">
        <lane id=":3188131771_0_0" index="0" allow="pedestrian delivery bicycle" speed="5.56" length="1.47" shape="300.49,444.67 300.39,444.25 300.33,443.95 300.32,443.65 300.33,443.22"/>
    </edge>
    <edge id=":3188131771_1" function="internal">
        <lane id=":3188131771_1_0" index="0" allow="pedestrian delivery bicycle" speed="5.56" length="0.49" shape="303.53,443.35 303.53,443.50 303.53,443.60 303.55,443.70 303.58,443.84"/>
    </edge>
    <edge id=":3281866246_0" function="internal">
        <lane id=":3281866246_0_0" index="0" disallow="tram rail_urban rail rail_electric rail_fast ship" speed="3.65" length="4.67" shape="266.53,506.87 265.37,506.01 265.01,505.20 265.45,504.42 266.69,503.68"/>
    </edge>
    <edge id=":3281866248_0" function="internal">
        <lane id=":3281866248_0_0" index="0" allow="pedestrian delivery bicycle" speed="5.56" length="9.09" shape="385.10,482.25 384.00,484.66 383.62,486.46 383.56,488.35 383.42,491.05"/>
    </edge>
    <edge id=":3281866248_1" function="internal">
        <lane id=":3281866248_1_0" index="0" allow="pedestrian delivery bicycle" speed="5.56" length="10.61" shape="385.10,482.25 383.45,484.65 381.48,486.31 379.18,487.24 376.55,487.43"/>
    </edge>
    <edge id=":3281866248_2" function="internal">
        <lane id=":3281866248_2_0" index="0" allow="pedestrian delivery bicycle" speed="3.65" length="4.67" shape="385.10,482.25 383.83,482.93 382.93,482.90 382.42,482.17 382.28,480.74"/>
    </edge>
    <edge id=":3281866248_3" function="internal">
        <lane id=":3281866248_3_0" index="0" allow="pedestrian delivery bicycle" speed="5.56" length="8.47" shape="375.05,484.13 377.46,484.05 379.47,483.45 381.08,482.35 382.28,480.74"/>
    </edge>
    <edge id=":3281866248_4" function="internal">
        <lane id=":3281866248_4_0" index="0" allow="pedestrian delivery bicycle" speed="5.56" length="12.36" shape="375.05,484.13 378.93,484.78 381.62,486.15 383.12,488.24 383.42,491.05"/>
    </edge>
    <edge id=":3281866248_5" function="internal">
        <lane id=":3281866248_5_0" index="0" allow="pedestrian delivery bicycle" speed="3.81" length="5.29" shape="375.05,484.13 376.66,484.40 377.45,485.04 377.41,486.05 376.55,487.43"/>
    </edge>
    <edge id=":3281866248_6" function="internal">
        <lane id=":3281866248_6_0" index="0" allow="pedestrian delivery bicycle" speed="5.26" length="5.67" shape="380.23,490.76 380.11,489.40 379.46,488.39 378.27,487.74 376.55,487.43"/>
    </edge>
    <edge id=":3281866248_7" function="internal">
        <lane id=":3281866248_7_0" index="0" allow="pedestrian delivery bicycle" speed="5.56" length="10.36" shape="380.23,490.76 380.42,487.71 380.55,485.53 381.03,483.46 382.28,480.74"/>
    </edge>
    <edge id=":3281866248_8" function="internal">
        <lane id=":3281866248_8_0" index="0" allow="pedestrian delivery bicycle" speed="3.65" length="4.67" shape="380.23,490.76 381.14,489.64 381.98,489.31 382.74,489.78 383.42,491.05"/>
    </edge>
    <edge id=":3281866249_0" function="internal">
        <lane id=":3281866249_0_0" index="0" disallow="tram rail_urban rail rail_electric rail_fast ship" speed="16.67" length="9.05" shape="385.08,516.17 376.08,515.64"/>
        <lane id=":3281866249_0_1" index="1" disallow="tram rail_urban rail rail_electric rail_fast ship" speed="16.67" length="9.05" shape="385.30,512.97 376.24,512.45"/>
    </edge>
    <edge id=":3281866249_2" function="internal">
        <lane id=":3281866249_2_0" index="0" allow="pedestrian delivery bicycle" speed="8.45" length="2.38" shape="385.30,512.97 383.08,512.12"/>
    </edge>
    <edge id=":3281866249_7" function="internal">
        <lane id=":3281866249_7_0" index="0" allow="pedestrian delivery bicycle" speed="8.45" length="12.78" shape="383.08,512.12 382.86,512.03 381.13,509.59 380.09,505.64 379.75,500.19"/>
    </edge>
    <edge id=":3281866249_3" function="internal">
        <lane id=":3281866249_3_0" index="0" allow="pedestrian delivery bicycle" speed="5.11" length="4.92" shape="382.95,500.20 383.14,501.52 383.69,502.49 384.63,503.12 385.94,503.39"/>
    </edge>
    <edge id=":3281866249_4" function="internal">
        <lane id=":3281866249_4_0" index="0" allow="pedestrian delivery bicycle" speed="5.89" length="7.48" shape="376.56,506.06 377.95,505.75 378.95,504.67 379.55,502.82 379.75,500.19"/>
    </edge>
    <edge id=":3281866249_5" function="internal">
        <lane id=":3281866249_5_0" index="0" disallow="tram rail_urban rail rail_electric rail_fast ship" speed="16.67" length="9.15" shape="376.56,506.06 385.72,506.59"/>
        <lane id=":3281866249_5_1" index="1" disallow="tram rail_urban rail rail_electric rail_fast ship" speed="16.67" length="9.15" shape="376.40,509.25 385.51,509.78"/>
    </edge>
    <edge id=":3661266985_0" function="internal">
        <lane id=":3661266985_0_0" index="0" allow="pedestrian delivery bicycle" speed="5.09" length="5.06" shape="355.77,567.18 354.42,567.36 353.44,567.94 352.83,568.92 352.60,570.31"/>
    </edge>
    <edge id=":3661266985_1" function="internal">
        <lane id=":3661266985_1_0" index="0" allow="pedestrian delivery bicycle" speed="5.56" length="9.40" shape="355.77,567.18 346.37,567.04"/>
    </edge>
    <edge id=":3661266985_2" function="internal">
        <lane id=":3661266985_2_0" index="0" allow="pedestrian delivery bicycle" speed="3.65" length="4.67" shape="355.77,567.18 354.58,566.37 354.19,565.56 354.60,564.77 355.81,563.98"/>
    </edge>
    <edge id=":3661266985_3" function="internal">
        <lane id=":3661266985_3_0" index="0" allow="pedestrian delivery bicycle" speed="5.56" length="9.40" shape="346.42,563.84 355.81,563.98"/>
    </edge>
    <edge id=":3661266985_4" function="internal">
        <lane id=":3661266985_4_0" index="0" allow="pedestrian delivery bicycle" speed="5.56" length="10.23" shape="346.42,563.84 349.19,564.28 351.15,565.51 352.28,567.52 352.60,570.31"/>
    </edge>
    <edge id=":3661266985_5" function="internal">
        <lane id=":3661266985_5_0" index="0" allow="pedestrian delivery bicycle" speed="3.65" length="4.67" shape="346.42,563.84 347.60,564.66 347.99,565.47 347.58,566.26 346.37,567.04"/>
    </edge>
    <edge id=":3661266985_6" function="internal">
        <lane id=":3661266985_6_0" index="0" allow="pedestrian delivery bicycle" speed="5.02" length="5.02" shape="349.40,570.21 349.24,568.84 348.69,567.86 347.73,567.26 346.37,567.04"/>
    </edge>
    <edge id=":3661266985_7" function="internal">
        <lane id=":3661266985_7_0" index="0" allow="pedestrian delivery bicycle" speed="5.56" length="10.16" shape="349.40,570.21 349.87,567.45 351.10,565.50 353.08,564.34 355.81,563.98"/>
    </edge>
    <edge id=":3661266985_8" function="internal">
        <lane id=":3661266985_8_0" index="0" allow="pedestrian delivery bicycle" speed="3.65" length="4.67" shape="349.40,570.21 350.23,569.04 351.05,568.66 351.83,569.09 352.60,570.31"/>
    </edge>
    <edge id=":3661266992_0" function="internal">
        <lane id=":3661266992_0_0" index="0" allow="pedestrian delivery bicycle" speed="5.56" length="9.35" shape="351.53,606.15 351.30,615.50"/>
    </edge>
    <edge id=":3661266992_1" function="internal">
        <lane id=":3661266992_1_0" index="0" allow="pedestrian delivery bicycle" speed="5.56" length="10.14" shape="351.53,606.15 351.05,608.84 349.81,610.77 347.80,611.92 345.03,612.30"/>
    </edge>
    <edge id=":3661266992_2" function="internal">
        <lane id=":3661266992_2_0" index="0" allow="pedestrian delivery bicycle" speed="3.65" length="4.67" shape="351.53,606.15 350.69,607.32 349.88,607.70 349.09,607.27 348.33,606.05"/>
    </edge>
    <edge id=":3661266992_3" function="internal">
        <lane id=":3661266992_3_0" index="0" allow="pedestrian delivery bicycle" speed="5.12" length="5.09" shape="345.03,609.10 346.44,608.91 347.46,608.34 348.09,607.39 348.33,606.05"/>
    </edge>
    <edge id=":3661266992_4" function="internal">
        <lane id=":3661266992_4_0" index="0" allow="pedestrian delivery bicycle" speed="5.56" length="10.25" shape="345.03,609.10 347.82,609.50 349.80,610.70 350.95,612.70 351.30,615.50"/>
    </edge>
    <edge id=":3661266992_5" function="internal">
        <lane id=":3661266992_5_0" index="0" allow="pedestrian delivery bicycle" speed="3.65" length="4.67" shape="345.03,609.10 346.23,609.90 346.63,610.70 346.23,611.50 345.03,612.30"/>
    </edge>
    <edge id=":3661266992_6" function="internal">
        <lane id=":3661266992_6_0" index="0" allow="pedestrian delivery bicycle" speed="5.02" length="5.02" shape="348.10,615.43 347.93,614.06 347.36,613.09 346.40,612.50 345.03,612.30"/>
    </edge>
    <edge id=":3661266992_7" function="internal">
        <lane id=":3661266992_7_0" index="0" allow="pedestrian delivery bicycle" speed="5.56" length="9.39" shape="348.10,615.43 348.33,606.05"/>
    </edge>
    <edge id=":3661266992_8" function="internal">
        <lane id=":3661266992_8_0" index="0" allow="pedestrian delivery bicycle" speed="3.65" length="4.67" shape="348.10,615.43 348.92,614.25 349.73,613.86 350.52,614.28 351.30,615.50"/>
    </edge>
    <edge id=":3661266993_0" function="internal">
        <lane id=":3661266993_0_0" index="0" allow="pedestrian delivery bicycle" speed="3.65" length="4.67" shape="395.85,678.62 395.06,679.82 394.27,680.23 393.46,679.84 392.65,678.64"/>
    </edge>
    <edge id=":4258341977_0" function="internal">
        <lane id=":4258341977_0_0" index="0" allow="pedestrian delivery bicycle" speed="5.56" length="5.21" shape="547.28,535.19 547.19,540.41"/>
    </edge>
    <edge id=":4258341977_1" function="internal">
        <lane id=":4258341977_1_0" index="0" allow="pedestrian delivery bicycle" speed="3.65" length="1.44" shape="547.28,535.19 546.48,536.39"/>
    </edge>
    <edge id=":4258341977_4" function="internal">
        <lane id=":4258341977_4_0" index="0" allow="pedestrian delivery bicycle" speed="3.65" length="3.23" shape="546.48,536.39 545.68,536.79 544.88,536.39 544.08,535.19"/>
    </edge>
    <edge id=":4258341977_2" function="internal">
        <lane id=":4258341977_2_0" index="0" allow="pedestrian delivery bicycle" speed="5.56" length="5.10" shape="543.99,540.29 544.08,535.19"/>
    </edge>
    <edge id=":4258341977_3" function="internal">
        <lane id=":4258341977_3_0" index="0" allow="pedestrian delivery bicycle" speed="3.65" length="1.44" shape="543.99,540.29 544.83,539.12"/>
    </edge>
    <edge id=":4258341977_5" function="internal">
        <lane id=":4258341977_5_0" index="0" allow="pedestrian delivery bicycle" speed="3.65" length="3.23" shape="544.83,539.12 545.64,538.75 546.43,539.18 547.19,540.41"/>
    </edge>
    <edge id=":4258349060_0" function="internal">
        <lane id=":4258349060_0_0" index="0" allow="pedestrian delivery bicycle" speed="5.56" length="5.15" shape="383.19,493.50 383.06,495.02 382.99,496.07 382.96,497.11 382.95,498.64"/>
    </edge>
    <edge id=":4258349060_1" function="internal">
        <lane id=":4258349060_1_0" index="0" allow="pedestrian delivery bicycle" speed="3.65" length="1.44" shape="383.19,493.50 382.29,494.62"/>
    </edge>
    <edge id=":4258349060_4" function="internal">
        <lane id=":4258349060_4_0" index="0" allow="pedestrian delivery bicycle" speed="3.65" length="3.23" shape="382.29,494.62 381.45,494.95 380.69,494.47 380.01,493.20"/>
    </edge>
    <edge id=":4258349060_2" function="internal">
        <lane id=":4258349060_2_0" index="0" allow="pedestrian delivery bicycle" speed="5.56" length="5.44" shape="379.75,498.63 379.76,497.02 379.79,495.91 379.86,494.81 380.01,493.20"/>
    </edge>
    <edge id=":4258349060_3" function="internal">
        <lane id=":4258349060_3_0" index="0" allow="pedestrian delivery bicycle" speed="3.65" length="1.44" shape="379.75,498.63 380.56,497.43"/>
    </edge>
    <edge id=":4258349060_5" function="internal">
        <lane id=":4258349060_5_0" index="0" allow="pedestrian delivery bicycle" speed="3.65" length="3.23" shape="380.56,497.43 381.36,497.03 382.16,497.44 382.95,498.64"/>
    </edge>
    <edge id=":4326699872_0" function="internal">
        <lane id=":4326699872_0_0" index="0" disallow="tram rail_urban rail rail_electric rail_fast ship" speed="16.67" length="6.05" shape="506.04,529.28 499.86,528.83"/>
        <lane id=":4326699872_0_1" index="1" disallow="tram rail_urban rail rail_electric rail_fast ship" speed="16.67" length="6.05" shape="506.20,526.08 500.16,525.65"/>
        <lane id=":4326699872_0_2" index="2" disallow="tram rail_urban rail rail_electric rail_fast ship" speed="16.67" length="6.05" shape="506.35,522.89 500.47,522.46"/>
    </edge>
    <edge id=":4326699872_3" function="internal">
        <lane id=":4326699872_3_0" index="0" disallow="tram rail_urban rail rail_electric rail_fast ship" speed="16.67" length="5.68" shape="501.07,516.09 506.66,516.50"/>
        <lane id=":4326699872_3_1" index="1" disallow="tram rail_urban rail rail_electric rail_fast ship" speed="16.67" length="5.68" shape="500.77,519.28 506.51,519.69"/>
    </edge>
    <edge id=":4350594767_0" function="internal">
        <lane id=":4350594767_0_0" index="0" disallow="tram rail_urban rail rail_electric rail_fast ship" speed="16.67" length="9.40" shape="598.90,530.39 589.51,529.97"/>
        <lane id=":4350594767_0_1" index="1" disallow="tram rail_urban rail rail_electric rail_fast ship" speed="16.67" length="9.40" shape="599.04,527.19 589.65,526.77"/>
    </edge>
    <edge id=":4350594767_2" function="internal">
        <lane id=":4350594767_2_0" index="0" allow="pedestrian delivery bicycle" speed="7.63" length="2.86" shape="599.04,527.19 596.28,526.47"/>
    </edge>
    <edge id=":4350594767_9" function="internal">
        <lane id=":4350594767_9_0" index="0" allow="pedestrian delivery bicycle" speed="7.63" length="10.07" shape="596.28,526.47 594.38,524.59 593.36,521.55 593.20,517.36"/>
    </edge>
    <edge id=":4350594767_3" function="internal">
        <lane id=":4350594767_3_0" index="0" allow="pedestrian delivery bicycle" speed="5.03" length="5.02" shape="596.39,517.54 596.51,518.92 597.04,519.92 597.98,520.54 599.33,520.80"/>
    </edge>
    <edge id=":4350594767_4" function="internal">
        <lane id=":4350594767_4_0" index="0" allow="pedestrian delivery bicycle" speed="7.67" length="12.83" shape="596.39,517.54 595.76,521.69 594.43,524.60 592.39,526.30 589.65,526.77"/>
    </edge>
    <edge id=":4350594767_5" function="internal">
        <lane id=":4350594767_5_0" index="0" allow="pedestrian delivery bicycle" speed="3.65" length="4.67" shape="596.39,517.54 595.52,518.70 594.70,519.05 593.93,518.60 593.20,517.36"/>
    </edge>
    <edge id=":4350594767_6" function="internal">
        <lane id=":4350594767_6_0" index="0" allow="pedestrian delivery bicycle" speed="5.08" length="5.05" shape="589.94,520.38 591.30,520.24 592.29,519.69 592.92,518.73 593.20,517.36"/>
    </edge>
    <edge id=":4350594767_7" function="internal">
        <lane id=":4350594767_7_0" index="0" disallow="tram rail_urban rail rail_electric rail_fast ship" speed="16.67" length="9.40" shape="589.94,520.38 599.33,520.80"/>
        <lane id=":4350594767_7_1" index="1" disallow="tram rail_urban rail rail_electric rail_fast ship" speed="16.67" length="9.40" shape="589.80,523.58 599.19,524.00"/>
    </edge>
    <edge id=":4350594768_0" function="internal">
        <lane id=":4350594768_0_0" index="0" allow="pedestrian delivery bicycle" speed="5.56" length="9.37" shape="599.53,464.19 599.06,473.55"/>
    </edge>
    <edge id=":4350594768_1" function="internal">
        <lane id=":4350594768_1_0" index="0" allow="pedestrian delivery bicycle" speed="5.56" length="10.15" shape="599.53,464.19 598.99,466.88 597.70,468.78 595.67,469.88 592.88,470.19"/>
    </edge>
    <edge id=":4350594768_2" function="internal">
        <lane id=":4350594768_2_0" index="0" allow="pedestrian delivery bicycle" speed="3.65" length="4.67" shape="599.53,464.19 598.67,465.35 597.85,465.71 597.07,465.26 596.33,464.02"/>
    </edge>
    <edge id=":4350594768_3" function="internal">
        <lane id=":4350594768_3_0" index="0" allow="pedestrian delivery bicycle" speed="5.11" length="5.08" shape="592.97,466.99 594.38,466.84 595.41,466.29 596.06,465.35 596.33,464.02"/>
    </edge>
    <edge id=":4350594768_4" function="internal">
        <lane id=":4350594768_4_0" index="0" allow="pedestrian delivery bicycle" speed="5.56" length="10.25" shape="592.97,466.99 595.75,467.47 597.69,468.72 598.79,470.75 599.06,473.55"/>
    </edge>
    <edge id=":4350594768_5" function="internal">
        <lane id=":4350594768_5_0" index="0" allow="pedestrian delivery bicycle" speed="3.65" length="4.67" shape="592.97,466.99 594.15,467.82 594.53,468.63 594.10,469.42 592.88,470.19"/>
    </edge>
    <edge id=":4350594768_6" function="internal">
        <lane id=":4350594768_6_0" index="0" allow="pedestrian delivery bicycle" speed="5.02" length="5.02" shape="595.86,473.40 595.73,472.03 595.19,471.04 594.24,470.42 592.88,470.19"/>
    </edge>
    <edge id=":4350594768_7" function="internal">
        <lane id=":4350594768_7_0" index="0" allow="pedestrian delivery bicycle" speed="5.56" length="9.39" shape="595.86,473.40 596.33,464.02"/>
    </edge>
    <edge id=":4350594768_8" function="internal">
        <lane id=":4350594768_8_0" index="0" allow="pedestrian delivery bicycle" speed="3.65" length="4.67" shape="595.86,473.40 596.72,472.24 597.54,471.88 598.32,472.32 599.06,473.55"/>
    </edge>
    <edge id=":4350594769_0" function="internal">
        <lane id=":4350594769_0_0" index="0" allow="pedestrian delivery bicycle" speed="3.65" length="4.67" shape="600.11,393.16 600.98,392.00 601.80,391.65 602.57,392.09 603.31,393.33"/>
    </edge>
    <edge id=":4350596690_0" function="internal">
        <lane id=":4350596690_0_0" index="0" allow="pedestrian delivery bicycle" speed="5.56" length="7.74" shape="533.67,418.27 532.77,420.37 532.34,421.89 532.16,423.46 532.04,425.75"/>
    </edge>
    <edge id=":4350596690_1" function="internal">
        <lane id=":4350596690_1_0" index="0" allow="pedestrian delivery bicycle" speed="5.56" length="9.35" shape="533.67,418.27 532.45,420.13 530.75,421.43 528.56,422.17 525.89,422.34"/>
    </edge>
    <edge id=":4350596690_2" function="internal">
        <lane id=":4350596690_2_0" index="0" allow="pedestrian delivery bicycle" speed="3.65" length="4.67" shape="533.67,418.27 532.44,419.03 531.55,419.06 530.99,418.37 530.76,416.94"/>
    </edge>
    <edge id=":4350596690_3" function="internal">