<routes>
	<vType id="typeCar" accel="0.8" decel="4.5" sigma="0.5" length="5" minGap="2.5" maxSpeed="16.67" guiShape="passenger"/>

	<flow id="02to03" begin="0" end="10000" probability="0.03" from="02to00" to="01to03"/>
	<flow id="02to04" begin="0" end="10000" probability="0.03" from="02to00" to="01to04"/>
	<flow id="02to05" begin="0" end="10000" probability="0.03" from="02to00" to="01to05"/>
	<flow id="02to06" begin="0" end="10000" probability="0.03" from="02to00" to="00to06"/>
	<flow id="02to07" begin="0" end="10000" probability="0.03" from="02to00" to="00to07"/>

	<flow id="03to02" begin="0" end="10000" probability="0.03" from="03to01" to="00to02"/>
	<flow id="03to04" begin="0" end="10000" probability="0.03" from="03to01" to="01to04"/>
	<flow id="03to05" begin="0" end="10000" probability="0.03" from="03to01" to="01to05"/>
	<flow id="03to06" begin="0" end="10000" probability="0.03" from="03to01" to="00to06"/>
	<flow id="03to07" begin="0" end="10000" probability="0.03" from="03to01" to="00to07"/>

	<flow id="04to03" begin="0" end="10000" probability="0.03" from="04to01" to="01to03"/>
	<flow id="04to02" begin="0" end="10000" probability="0.03" from="04to01" to="00to02"/>
	<flow id="04to05" begin="0" end="10000" probability="0.03" from="04to01" to="01to05"/>
	<flow id="04to06" begin="0" end="10000" probability="0.03" from="04to01" to="00to06"/>
	<flow id="04to07" begin="0" end="10000" probability="0.03" from="04to01" to="00to07"/>

	<flow id="05to03" begin="0" end="10000" probability="0.03" from="05to01" to="01to03"/>
	<flow id="05to04" begin="0" end="10000" probability="0.03" from="05to01" to="01to04"/>
	<flow id="05to02" begin="0" end="10000" probability="0.03" from="05to01" to="00to02"/>
	<flow id="05to06" begin="0" end="10000" probability="0.03" from="05to01" to="00to06"/>
	<flow id="05to07" begin="0" end="10000" probability="0.03" from="05to01" to="00to07"/>

	<flow id="06to03" begin="0" end="10000" probability="0.03" from="06to00" to="01to03"/>
	<flow id="06to04" begin="0" end="10000" probability="0.03" from="06to00" to="01to04"/>
	<flow id="06to05" begin="0" end="10000" probability="0.03" from="06to00" to="01to05"/>
	<flow id="06to02" begin="0" end="10000" probability="0.03" from="06to00" to="00to02"/>
	<flow id="06to07" begin="0" end="10000" probability="0.03" from="06to00" to="00to07"/>

	<flow id="07to03" begin="0" end="10000" probability="0.03" from="07to00" to="01to03"/>
	<flow id="07to04" begin="0" end="10000" probability="0.03" from="07to00" to="01to04"/>
	<flow id="07to05" begin="0" end="10000" probability="0.03" from="07to00" to="01to05"/>
	<flow id="07to06" begin="0" end="10000" probability="0.03" from="07to00" to="00to06"/>
	<flow id="07to02" begin="0" end="10000" probability="0.03" from="07to00" to="00to02"/>

</routes>
